316
m4_l1
Pd    7.790300   -6.244600   -0.001800
Pd   -6.242700   -7.779100   -0.003700
Pd   -7.789300    6.245800   -0.005900
Pd    6.251700    7.777600    0.001700
 C    5.614000   -6.870200   -1.816200
 N    6.798000   -7.337900   -1.391000
 C    7.181600   -8.570800   -1.754900
 C    6.371700   -9.395200   -2.519600
 C    5.105300   -8.950100   -2.928400
 C    4.154000   -9.819800   -3.643600
 C    4.601800  -10.830600   -4.522600
 C    3.717400  -11.676200   -5.185900
 C    2.364100  -11.492300   -4.933600
 O    1.344300  -12.224300   -5.459800
 C    0.190700  -11.728000   -4.934800
 C   -1.091200  -12.198000   -5.188300
 C   -2.137100  -11.562200   -4.525800
 C   -1.917600  -10.478800   -3.646600
 C   -3.034400   -9.835200   -2.931500
 C   -2.979800   -8.475500   -2.586400
 C   -3.984300   -7.915600   -1.820600
 N   -5.037700   -8.629900   -1.394600
 C   -5.143400   -9.916900   -1.757700
 C   -4.173100  -10.545400   -2.521800
 C   -0.612900  -10.021200   -3.420000
 C    0.445700  -10.654700   -4.062500
 C    1.883900  -10.498900   -4.061600
 C    2.781300   -9.653200   -3.418100
 C    4.755800   -7.635300   -2.582100
 H    5.337900   -5.855300   -1.521400
 H    8.155300   -8.915500   -1.401400
 H    6.721500  -10.402100   -2.749200
 H    5.671300  -10.943800   -4.710200
 H    4.070200  -12.447700   -5.871100
 H   -1.269600  -13.027300   -5.873700
 H   -3.157200  -11.902700   -4.713800
 H   -2.155600   -7.839800   -2.909500
 H   -3.936800   -6.864700   -1.526300
 H   -6.018700  -10.465100   -1.403900
 H   -4.294800  -11.604600   -2.750100
 H   -0.419700   -9.203800   -2.723000
 H    2.416700   -8.896700   -2.721200
 H    3.812800   -7.194600   -2.904700
 C    5.603200   -6.872500    1.789100
 N    6.799200   -7.333500    1.391800
 C    7.191800   -8.554000    1.786500
 C    6.379200   -9.372700    2.555100
 C    5.102000   -8.934200    2.937000
 C    4.150000   -9.797400    3.659100
 C    4.595500  -10.787100    4.562800
 C    3.710100  -11.621700    5.238700
 C    2.357700  -11.447800    4.975100
 O    1.336500  -12.167900    5.515100
 C    0.184100  -11.683400    4.976400
 C   -1.099400  -12.142800    5.241700
 C   -2.143900  -11.517800    4.566700
 C   -1.921600  -10.456400    3.661700
 C   -3.036600   -9.818800    2.938500
 C   -2.964600   -8.469800    2.556100
 C   -3.967200   -7.915900    1.784200
 N   -5.036600   -8.623900    1.389200
 C   -5.159300   -9.898700    1.788400
 C   -4.190200  -10.521800    2.558900
 C   -0.615000  -10.011500    3.420900
 C    0.441800  -10.632400    4.078200
 C    1.879800  -10.476400    4.077400
 C    2.778100   -9.642800    3.419800
 C    4.742800   -7.630700    2.558800
 H    5.320600   -5.868200    1.466400
 H    8.175400   -8.893300    1.455800
 H    6.737400  -10.370600    2.809700
 H    5.664100  -10.891500    4.760600
 H    4.061600  -12.375900    5.943600
 H   -1.280300  -12.954500    5.947100
 H   -3.165000  -11.848700    4.765700
 H   -2.127700   -7.838400    2.853900
 H   -3.906400   -6.875300    1.458400
 H   -6.047600  -10.441500    1.459600
 H   -4.326100  -11.572600    2.816400
 H   -0.419100   -9.212500    2.703800
 H    2.414200   -8.903200    2.704300
 H    3.790600   -7.193800    2.859100
 C    7.932400   -3.981000   -1.804500
 N    8.642600   -5.043900   -1.395600
 C    9.923300   -5.159600   -1.777800
 C   10.550000   -4.189400   -2.544000
 C    9.844600   -3.041600   -2.936200
 C   10.485100   -1.924900   -3.654400
 C   11.554700   -2.145100   -4.550100
 C   12.182400   -1.099400   -5.220700
 C   11.717800    0.183000   -4.959500
 O   12.204200    1.336300   -5.494500
 C   11.478500    2.356200   -4.959600
 C   11.652900    3.708900   -5.221200
 C   10.813300    4.593100   -4.550100
 C    9.818300    4.145800   -3.653000
 C    8.951200    5.096400   -2.933900
 C    7.645000    4.737000   -2.565300
 C    6.882700    5.595100   -1.796800
 N    7.343100    6.788900   -1.391800
 C    8.566500    7.181600   -1.777400
 C    9.388900    6.371400   -2.544400
 C    9.662700    2.773600   -3.416200
 C   10.501300    1.876500   -4.069100
 C   10.659100    0.438700   -4.069600
 C   10.035000   -0.619400   -3.417500
 C    8.490100   -2.977100   -2.572200
 H    6.886500   -3.925500   -1.494200
 H   10.467600   -6.043000   -1.438300
 H   11.604700   -4.318800   -2.788500
 H   11.889700   -3.165600   -4.745700
 H   13.000300   -1.278500   -5.919500
 H   12.411700    4.061400   -5.920600
 H   10.918100    5.662000   -4.745900
 H    7.209700    3.786200   -2.872100
 H    5.876000    5.312000   -1.482000
 H    8.904500    8.163400   -1.440200
 H   10.388800    6.729100   -2.791800
 H    8.918800    2.409300   -2.705500
 H    9.229200   -0.425500   -2.707300
 H    7.857100   -2.145400   -2.881000
 C    7.939200   -3.992100    1.817900
 N    8.651600   -5.045200    1.387500
 C    9.940600   -5.151000    1.743800
 C   10.572400   -4.180400    2.505100
 C    9.864000   -3.041900    2.918400
 C   10.509700   -1.924700    3.630600
 C   11.593400   -2.143300    4.509500
 C   12.228500   -1.096900    5.172100
 C   11.757100    0.184600    4.918800
 O   12.250200    1.338600    5.446100
 C   11.516400    2.357500    4.920800
 C   11.694900    3.710700    5.177500
 C   10.846800    4.593900    4.515900
 C    9.839800    4.145300    3.632800
 C    8.966400    5.095200    2.920500
 C    7.657300    4.735900    2.561900
 C    6.889000    5.594200    1.799500
 N    7.347100    6.787600    1.390300
 C    8.573100    7.180400    1.767300
 C    9.401100    6.370400    2.528100
 C    9.679400    2.772700    3.402000
 C   10.526100    1.876500    4.045600
 C   10.684600    0.438700    4.045100
 C   10.052000   -0.620300    3.402600
 C    8.502600   -2.987200    2.580400
 H    6.886500   -3.944800    1.530300
 H   10.487400   -6.026100    1.386600
 H   11.633000   -4.300700    2.727700
 H   11.934500   -3.163200    4.697800
 H   13.057600   -1.274600    5.857700
 H   12.463600    4.064200    5.865500
 H   10.955100    5.663100    4.708000
 H    7.224300    3.784800    2.871500
 H    5.879200    5.311700    1.493800
 H    8.908100    8.162600    1.428400
 H   10.402600    6.728600    2.768000
 H    8.926300    2.407200    2.701800
 H    9.234100   -0.428200    2.705900
 H    7.868700   -2.162200    2.905600
 C   -5.609400    6.874500   -1.811700
 N   -6.797800    7.339200   -1.395400
 C   -7.182800    8.570200   -1.764100
 C   -6.369900    9.395900   -2.524400
 C   -5.099300    8.953900   -2.923700
 C   -4.146500    9.824500   -3.635900
 C   -4.593100   10.831000   -4.520300
 C   -3.708100   11.675900   -5.183500
 C   -2.355400   11.495400   -4.925900
 O   -1.335400   12.226100   -5.453200
 C   -0.182400   11.733000   -4.924300
 C    1.099600   12.201800   -5.179800
 C    2.145400   11.568300   -4.514900
 C    1.925500   10.489200   -3.630600
 C    3.042800    9.845200   -2.916900
 C    2.983800    8.486800   -2.567200
 C    3.990100    7.925100   -1.805500
 N    5.049300    8.635700   -1.387200
 C    5.159000    9.921400   -1.754300
 C    4.186800   10.551600   -2.515000
 C    0.620500   10.033900   -3.400700
 C   -0.438000   10.664100   -4.046700
 C   -1.876100   10.506600   -4.048000
 C   -2.774300    9.661800   -3.404100
 C   -4.748000    7.640800   -2.572800
 H   -5.333300    5.860600   -1.513300
 H   -8.160700    8.911200   -1.418600
 H   -6.721300   10.401100   -2.758600
 H   -5.662100   10.940900   -4.712600
 H   -4.059800   12.443700   -5.873400
 H    1.278100   13.027600   -5.869200
 H    3.165600   11.907000   -4.705300
 H    2.155000    7.853500   -2.883400
 H    3.939000    6.874900   -1.509000
 H    6.039700   10.466300   -1.407700
 H    4.311000   11.609500   -2.747900
 H    0.427500    9.220100   -2.699500
 H   -2.410700    8.908200   -2.703400
 H   -3.801400    7.202900   -2.888400
 C   -5.601300    6.870400    1.788100
 N   -6.794800    7.333300    1.385800
 C   -7.185200    8.556500    1.774200
 C   -6.372800    9.376300    2.541500
 C   -5.097800    8.935800    2.928600
 C   -4.145700    9.800100    3.649100
 C   -4.592200   10.795200    4.546400
 C   -3.707500   11.632900    5.219100
 C   -2.354900   11.456700    4.958500
 O   -1.334600   12.180400    5.495100
 C   -0.181600   11.693100    4.960600
 C    1.101000   12.156500    5.223000
 C    2.146400   11.528700    4.552100
 C    1.926000   10.460100    3.655400
 C    3.043000    9.821400    2.936200
 C    2.980800    8.467400    2.569900
 C    3.986700    7.912800    1.802600
 N    5.048900    8.625500    1.395700
 C    5.162300    9.905800    1.779700
 C    4.190000   10.529300    2.545900
 C    0.620400   10.010900    3.417600
 C   -0.437600   10.635500    4.069500
 C   -1.875800   10.479300    4.067800
 C   -2.773400    9.642200    3.413700
 C   -4.740900    7.629900    2.556700
 H   -5.321000    5.863700    1.471000
 H   -8.167200    8.896100    1.439400
 H   -6.728900   10.376200    2.790800
 H   -5.661100   10.901700    4.741300
 H   -4.059600   12.391700    5.918700
 H    1.280400   12.973800    5.922300
 H    3.166900   11.863600    4.747900
 H    2.149800    7.832400    2.877100
 H    3.933900    6.867100    1.491100
 H    6.046000   10.451800    1.442500
 H    4.316800   11.583900    2.791800
 H    0.426400    9.206100    2.706300
 H   -2.409100    8.898300    2.703000
 H   -3.790600    7.192300    2.861500
 C   -6.885700   -5.602000   -1.804700
 N   -7.342400   -6.795600   -1.394500
 C   -8.569500   -7.188300   -1.768100
 C   -9.399700   -6.377900   -2.526400
 C   -8.966100   -5.102600   -2.919700
 C   -9.840600   -4.152100   -3.630000
 C  -10.844300   -4.600100   -4.516900
 C  -11.690100   -3.716300   -5.180800
 C  -11.513000   -2.363500   -4.922200
 O  -12.243000   -1.344100   -5.452000
 C  -11.751700   -0.190300   -4.922800
 C  -12.218100    1.091700   -5.182400
 C  -11.584500    2.138300   -4.518900
 C  -10.507800    1.919400   -3.631400
 C   -9.861700    3.037600   -2.920800
 C   -8.505500    2.973000   -2.563600
 C   -7.942300    3.980000   -1.804200
 N   -8.648600    5.045900   -1.396200
 C   -9.931300    5.161800   -1.772000
 C  -10.563300    4.188500   -2.530000
 C  -10.055700    0.614100   -3.396400
 C  -10.685600   -0.445000   -4.041600
 C  -10.527700   -1.883000   -4.041100
 C   -9.682900   -2.779700   -3.395500
 C   -7.655900   -4.743500   -2.564900
 H   -5.875100   -5.318800   -1.501800
 H   -8.904500   -8.170100   -1.427700
 H  -10.402100   -6.735100   -2.763500
 H  -10.951100   -5.669100   -4.710800
 H  -12.455500   -4.069300   -5.872800
 H  -13.041800    1.269900   -5.874500
 H  -11.920900    3.158500   -4.713600
 H   -7.875100    2.138900   -2.871600
 H   -6.894800    3.924500   -1.499600
 H  -10.472500    6.048100   -1.434100
 H  -11.618900    4.318100   -2.769800
 H   -9.244000    0.421300   -2.692800
 H   -8.932700   -2.414700   -2.691800
 H   -7.223200   -3.792700   -2.875600
 C   -6.875200   -5.613600    1.818500
 N   -7.342400   -6.795400    1.386300
 C   -8.579000   -7.177100    1.739200
 C   -9.407900   -6.366500    2.498400
 C   -8.963500   -5.101900    2.913100
 C   -9.837100   -4.150500    3.623100
 C  -10.848900   -4.598900    4.500500
 C  -11.697200   -3.715000    5.161000
 C  -11.514500   -2.361900    4.907800
 O  -12.248200   -1.342900    5.432800
 C  -11.752300   -0.188900    4.908600
 C  -12.223300    1.092500    5.162900
 C  -11.586800    2.139300    4.502700
 C  -10.502500    1.921200    3.624400
 C   -9.857000    3.039500    2.913600
 C   -8.497900    2.981700    2.566600
 C   -7.936100    3.988200    1.805200
 N   -8.647100    5.046500    1.385400
 C   -9.933100    5.155900    1.751400
 C  -10.563500    4.183200    2.511200
 C  -10.044800    0.616800    3.395700
 C  -10.678200   -0.442800    4.036800
 C  -10.520600   -1.880900    4.036400
 C   -9.672500   -2.777800    3.395200
 C   -7.644900   -4.754700    2.579200
 H   -5.856800   -5.339800    1.533800
 H   -8.922800   -8.149400    1.380600
 H  -10.417900   -6.713900    2.718000
 H  -10.960500   -5.668300    4.689300
 H  -12.469300   -4.068000    5.845500
 H  -13.053400    1.269800    5.847600
 H  -11.927800    3.159000    4.691800
 H   -7.864600    2.153400    2.883800
 H   -6.885600    3.938100    1.509800
 H  -10.478000    6.036500    1.404400
 H  -11.621900    4.306500    2.742100
 H   -9.226600    0.425100    2.699300
 H   -8.915500   -2.413400    2.698600
 H   -7.205000   -3.812900    2.907000
