154

Pd 1.065300 3.394100 -0.059800
Pd -0.575800 -5.596000 0.355700
C 6.253600 -1.654600 0.311000
C 5.819400 -2.768700 0.489600
C 5.385600 -4.097300 0.671600
C 6.316200 -5.101100 0.879300
C 5.921900 -6.434200 1.038700
C 4.598200 -6.785700 0.984000
C 3.619200 -5.791700 0.772200
C 2.248600 -6.097000 0.693300
N 1.326400 -5.181000 0.499700
C 1.671700 -3.875600 0.372000
C 2.979000 -3.475800 0.422600
C 4.002000 -4.427800 0.621100
H 7.364900 -4.848000 0.917900
H 6.677500 -7.187200 1.201200
H 4.297200 -7.814600 1.100000
H 1.925100 -7.129000 0.797400
H 0.844000 -3.180700 0.224600
H 3.252900 -2.438900 0.309500
C 6.688300 -0.338800 0.041600
C 7.972300 -0.098700 -0.453800
C 8.351200 1.193700 -0.766700
C 7.467900 2.248700 -0.606800
C 6.184400 2.024200 -0.106200
C 5.809400 0.726400 0.229800
H 8.658100 -0.919800 -0.595900
H 9.342300 1.382000 -1.151100
H 7.772900 3.241700 -0.897800
H 4.846100 0.528100 0.671600
C 5.223100 3.128100 0.029600
C 5.606800 4.434500 0.349000
C 4.646400 5.429400 0.437600
C 3.314300 5.106500 0.232600
N 2.949200 3.858500 -0.057300
C 3.862300 2.899300 -0.170300
H 6.643300 4.664500 0.539400
H 4.928600 6.442500 0.674600
H 2.522700 5.850700 0.295500
H 3.499900 1.914300 -0.457500
C -0.804400 -0.411800 6.135100
C -0.601100 0.765500 5.948700
C -0.442200 2.129800 5.636000
C -0.883300 3.119000 6.497300
C -0.815900 4.469900 6.136400
C -0.340900 4.850700 4.907200
C 0.128500 3.872900 4.005200
C 0.579300 4.188400 2.708500
N 1.037300 3.276000 1.882900
C 1.122000 1.977200 2.266400
C 0.665000 1.560200 3.483200
C 0.117300 2.499900 4.381300
H -1.294800 2.843600 7.456500
H -1.164200 5.214600 6.835600
H -0.321100 5.890700 4.622900
H 0.553000 5.212300 2.349700
H 1.591700 1.292600 1.556800
H 0.712200 0.523700 3.776900
C -1.127400 -1.768400 6.351100
C -1.814400 -2.138800 7.510600
C -2.191800 -3.456000 7.690000
C -1.893200 -4.408500 6.731100
C -1.194000 -4.056200 5.573700
C -0.811500 -2.730700 5.390900
H -2.051700 -1.394100 8.254800
H -2.729300 -3.743700 8.580900
H -2.231000 -5.422700 6.875400
H -0.244500 -2.437800 4.521700
C -0.893800 -5.087500 4.568200
C -0.610400 -6.402900 4.949400
C -0.398600 -7.373000 3.983600
C -0.453400 -7.011300 2.648800
N -0.682800 -5.748400 2.287300
C -0.902500 -4.807700 3.200900
H -0.547400 -6.661200 5.994700
H -0.193500 -8.392900 4.266400
H -0.317800 -7.752300 1.857100
H -1.108000 -3.813300 2.819200
C -5.800800 -0.250900 0.337800
C -5.449700 0.898100 0.202000
C -4.975800 2.219700 0.080200
C -5.842900 3.295300 0.019400
C -5.358800 4.606400 -0.072400
C -4.012400 4.863800 -0.096900
C -3.093500 3.793500 -0.037600
C -1.700900 3.987700 -0.053500
N -0.850000 2.984500 -0.008600
C -1.292700 1.706600 0.062200
C -2.624300 1.413100 0.095400
C -3.571900 2.454400 0.045100
H -6.908000 3.121400 0.044400
H -6.065500 5.420600 -0.119600
H -3.647100 5.876200 -0.161000
H -1.279300 4.990200 -0.104700
H -0.525700 0.940100 0.093200
H -2.970500 0.394400 0.160900
C -6.188700 -1.589300 0.564400
C -7.433800 -1.872300 1.131500
C -7.774800 -3.182700 1.408900
C -6.894000 -4.213600 1.129500
C -5.651700 -3.947700 0.548200
C -5.307600 -2.629200 0.264900
H -8.117300 -1.068200 1.357100
H -8.732900 -3.404500 1.854100
H -7.167900 -5.223800 1.390600
H -4.373100 -2.395800 -0.219800
C -4.723300 -5.056000 0.272800
C -5.191600 -6.319800 -0.105000
C -4.298200 -7.360200 -0.293300
C -2.945800 -7.123600 -0.117100
N -2.496300 -5.913400 0.208500
C -3.343300 -4.902900 0.403500
H -6.246800 -6.481000 -0.259800
H -4.646400 -8.340900 -0.573900
H -2.207400 -7.910800 -0.242500
H -2.896100 -3.953000 0.693700
C -1.473000 -0.602900 -5.721300
C -1.288600 0.590700 -5.662200
C -1.083800 1.968800 -5.454600
C -1.615400 2.925200 -6.300500
C -1.462300 4.289900 -6.027000
C -0.807700 4.718600 -4.900100
C -0.245800 3.774400 -4.015300
C 0.383600 4.139100 -2.807400
N 0.912100 3.253500 -1.995200
C 0.901900 1.933900 -2.313400
C 0.280800 1.473700 -3.438000
C -0.350600 2.386000 -4.308500
H -2.161600 2.615600 -7.178600
H -1.884900 5.009100 -6.711800
H -0.717500 5.771100 -4.683000
H 0.443300 5.180800 -2.510100
H 1.432800 1.259000 -1.636800
H 0.255900 0.422600 -3.676900
C -1.724000 -1.989800 -5.790500
C -2.498300 -2.510500 -6.830500
C -2.758500 -3.867200 -6.877000
C -2.249200 -4.713000 -5.906800
C -1.469800 -4.206200 -4.864400
C -1.215000 -2.840700 -4.807200
H -2.888700 -1.851000 -7.590400
H -3.361100 -4.270700 -7.676700
H -2.479400 -5.766300 -5.949300
H -0.593300 -2.434000 -4.025300
C -0.924600 -5.131000 -3.857100
C -0.430900 -6.381200 -4.240800
C 0.040200 -7.260600 -3.280200
C 0.007200 -6.877700 -1.950600
N -0.446200 -5.676500 -1.586800
C -0.898400 -4.818100 -2.498200
H -0.406900 -6.653700 -5.284300
H 0.422500 -8.228600 -3.561300
H 0.363800 -7.548000 -1.165700
H -1.265700 -3.870400 -2.119700
