
     RDKit          3D

  0  0  0  0  0  0  0  0  0  0999 V3000
M  V30 BEGIN CTAB
M  V30 COUNTS 186 208 0 0 0
M  V30 BEGIN ATOM
M  V30 1 Pd -3.7879 6.6495 -6.1657 0 CHG=2
M  V30 2 Pd -3.1807 -6.1713 -3.1263 0 CHG=2
M  V30 3 C -4.0741 2.7805 -7.6467 0
M  V30 4 C -4.3155 4.1137 -7.3965 0
M  V30 5 N -3.3249 4.9860 -7.1897 0
M  V30 6 C -2.0576 4.5801 -7.3106 0
M  V30 7 C -1.7268 3.2714 -7.5874 0
M  V30 8 C -2.7512 2.3225 -7.7041 0
M  V30 9 C -2.4451 0.9137 -7.7316 0
M  V30 10 C -1.3041 0.2670 -8.1520 0
M  V30 11 C -1.2688 -1.0767 -7.7696 0
M  V30 12 C -2.3850 -1.4641 -7.0595 0
M  V30 13 S -3.5263 -0.1698 -6.9220 0
M  V30 14 C -2.6197 -2.6739 -6.3144 0
M  V30 15 C -3.9102 -3.1459 -6.0430 0
M  V30 16 C -4.0766 -4.2278 -5.2038 0
M  V30 17 N -3.0445 -4.8295 -4.6112 0
M  V30 18 C -1.8004 -4.3962 -4.8658 0
M  V30 19 C -1.5440 -3.3539 -5.7247 0
M  V30 20 H -4.8974 2.0955 -7.7753 0
M  V30 21 H -5.3299 4.5046 -7.3412 0
M  V30 22 H -1.2847 5.3282 -7.1529 0
M  V30 23 H -0.6941 2.9727 -7.6575 0
M  V30 24 H -0.5264 0.7307 -8.7318 0
M  V30 25 H -0.4590 -1.7357 -8.0269 0
M  V30 26 H -4.7715 -2.6693 -6.4838 0
M  V30 27 H -5.0623 -4.6253 -4.9906 0
M  V30 28 H -0.9821 -4.8945 -4.3458 0
M  V30 29 H -0.5308 -3.0338 -5.9031 0
M  V30 30 C -4.0499 3.4274 -3.5301 0
M  V30 31 C -4.3554 4.5553 -4.2574 0
M  V30 32 N -3.4425 5.4884 -4.5483 0
M  V30 33 C -2.2046 5.3506 -4.0653 0
M  V30 34 C -1.8168 4.2550 -3.3193 0
M  V30 35 C -2.7398 3.2298 -3.0673 0
M  V30 36 C -2.3658 1.9897 -2.4324 0
M  V30 37 C -1.2081 1.6550 -1.7592 0
M  V30 38 C -1.1568 0.3106 -1.3814 0
M  V30 39 C -2.2780 -0.4018 -1.7529 0
M  V30 40 S -3.4192 0.6203 -2.5599 0
M  V30 41 C -2.5591 -1.8135 -1.6625 0
M  V30 42 C -3.8706 -2.2869 -1.8128 0
M  V30 43 C -4.0950 -3.6366 -1.9686 0
M  V30 44 N -3.0996 -4.5260 -1.9758 0
M  V30 45 C -1.8563 -4.1104 -1.7056 0
M  V30 46 C -1.5468 -2.7765 -1.5312 0
M  V30 47 H -4.8161 2.6926 -3.3386 0
M  V30 48 H -5.3634 4.7138 -4.6329 0
M  V30 49 H -1.5001 6.1451 -4.2960 0
M  V30 50 H -0.8002 4.1815 -2.9712 0
M  V30 51 H -0.4227 2.3536 -1.5361 0
M  V30 52 H -0.3320 -0.1160 -0.8405 0
M  V30 53 H -4.7042 -1.6035 -1.8395 0
M  V30 54 H -5.0991 -4.0199 -2.1109 0
M  V30 55 H -1.0878 -4.8801 -1.6449 0
M  V30 56 H -0.5257 -2.4826 -1.3524 0
M  V30 57 C -4.0359 10.3303 -4.0466 0
M  V30 58 C -3.6191 9.3225 -4.8722 0
M  V30 59 N -4.3203 8.1740 -4.9991 0
M  V30 60 C -5.4038 7.9823 -4.2734 0
M  V30 61 C -5.8738 8.9134 -3.3325 0
M  V30 62 C -7.0046 8.6635 -2.5026 0
M  V30 63 C -7.6146 7.3255 -2.4383 0
M  V30 64 C -8.9952 7.1574 -2.5449 0
M  V30 65 C -9.5614 5.9014 -2.4551 0
M  V30 66 C -8.7569 4.7784 -2.2398 0
M  V30 67 C -9.3325 3.4942 -2.1287 0
M  V30 68 C -9.8082 2.3882 -2.0221 0
M  V30 69 C -10.4489 1.1360 -1.8562 0
M  V30 70 N -9.7006 0.0364 -1.8764 0
M  V30 71 C -10.2998 -1.1346 -1.6861 0
M  V30 72 C -9.5067 -2.3099 -1.6873 0
M  V30 73 C -8.9030 -3.3567 -1.6619 0
M  V30 74 C -8.2168 -4.5901 -1.6102 0
M  V30 75 C -7.2709 -4.9265 -2.5840 0
M  V30 76 C -6.6117 -6.1407 -2.5283 0
M  V30 77 C -6.9087 -7.0638 -1.5145 0
M  V30 78 C -6.3169 -8.4072 -1.5733 0
M  V30 79 C -7.1293 -9.5259 -1.4532 0
M  V30 80 C -6.6238 -10.7893 -1.7134 0
M  V30 81 C -5.3504 -10.9281 -2.2439 0
M  V30 82 C -4.5198 -9.8279 -2.3879 0
M  V30 83 C -2.0387 -9.5784 -2.4580 0
M  V30 84 C -1.8608 -8.4559 -1.7488 0
M  V30 85 N -2.7449 -7.4298 -1.4739 0
M  V30 86 C -4.0569 -7.4818 -1.5713 0
M  V30 87 C -4.9453 -8.5783 -1.8984 0
M  V30 88 C -7.8558 -6.7216 -0.5486 0
M  V30 89 C -8.4928 -5.4983 -0.5840 0
M  V30 90 C -11.6790 -1.2628 -1.4749 0
M  V30 91 C -12.4518 -0.1144 -1.4697 0
M  V30 92 C -11.8368 1.1103 -1.6611 0
M  V30 93 C -7.3748 4.9452 -2.1153 0
M  V30 94 C -6.8146 6.2012 -2.2164 0
M  V30 95 C -7.4764 9.6897 -1.7153 0
M  V30 96 C -6.8369 10.9376 -1.6798 0
M  V30 97 C -5.7013 11.1708 -2.4110 0
M  V30 98 C -5.1953 10.1651 -3.2550 0
M  V30 99 H -3.4877 11.2573 -3.9924 0
M  V30 100 H -2.7237 9.4132 -5.4785 0
M  V30 101 H -5.9638 7.0644 -4.4466 0
M  V30 102 H -9.6254 8.0176 -2.7147 0
M  V30 103 H -10.6306 5.7822 -2.5452 0
M  V30 104 H -7.0933 -4.2319 -3.3914 0
M  V30 105 H -5.8957 -6.4136 -3.3162 0
M  V30 106 H -8.1677 -9.4073 -1.1857 0
M  V30 107 H -7.2517 -11.6578 -1.5897 0
M  V30 108 H -5.0146 -11.8995 -2.5735 0
M  V30 109 H -1.2227 -10.2845 -2.5031 0
M  V30 110 H -0.8979 -8.2898 -1.2767 0
M  V30 111 H -4.5514 -6.6728 -1.0176 0
M  V30 112 H -8.0814 -7.4181 0.2444 0
M  V30 113 H -9.2174 -5.2421 0.1737 0
M  V30 114 H -12.1198 -2.2360 -1.3245 0
M  V30 115 H -13.5197 -0.1734 -1.3142 0
M  V30 116 H -12.4027 2.0288 -1.6561 0
M  V30 117 H -6.7562 4.0833 -1.9214 0
M  V30 118 H -5.7503 6.3265 -2.0812 0
M  V30 119 H -8.3368 9.5246 -1.0843 0
M  V30 120 H -7.2375 11.7115 -1.0428 0
M  V30 121 H -5.1894 12.1186 -2.3507 0
M  V30 122 C -5.1667 9.3475 -9.2112 0
M  V30 123 C -5.0368 8.6341 -8.0510 0
M  V30 124 N -4.0596 7.7114 -7.8743 0
M  V30 125 C -3.2586 7.4381 -8.8859 0
M  V30 126 C -3.3798 8.0244 -10.1555 0
M  V30 127 C -2.5735 7.6134 -11.2547 0
M  V30 128 C -1.7868 6.3709 -11.1625 0
M  V30 129 C -0.4294 6.3301 -11.4752 0
M  V30 130 C 0.2768 5.1463 -11.3851 0
M  V30 131 C -0.3685 3.9662 -11.0034 0
M  V30 132 C 0.3472 2.7514 -10.9283 0
M  V30 133 C 0.9485 1.7043 -10.8677 0
M  V30 134 C 1.7127 0.5119 -10.9103 0
M  V30 135 N 1.2061 -0.5884 -10.3598 0
M  V30 136 C 1.9046 -1.7171 -10.4578 0
M  V30 137 C 1.3449 -2.9053 -9.9271 0
M  V30 138 C 0.9342 -3.9781 -9.5496 0
M  V30 139 C 0.3987 -5.1990 -9.0857 0
M  V30 140 C 1.1724 -6.3633 -9.0560 0
M  V30 141 C 0.6407 -7.5452 -8.5763 0
M  V30 142 C -0.6689 -7.5909 -8.1011 0
M  V30 143 C -1.2542 -8.7926 -7.4938 0
M  V30 144 C -1.2215 -10.0705 -8.0399 0
M  V30 145 C -1.9238 -11.1172 -7.4511 0
M  V30 146 C -2.7063 -10.9473 -6.3108 0
M  V30 147 C -2.7241 -9.6977 -5.7302 0
M  V30 148 C -3.4445 -9.1191 -4.5391 0
M  V30 149 C -3.2704 -9.9477 -3.2250 0
M  V30 150 N -2.9518 -7.7455 -4.4619 0
M  V30 151 C -2.1296 -7.5358 -5.4392 0
M  V30 152 C -1.9772 -8.6565 -6.3020 0
M  V30 153 C -1.4514 -6.4328 -8.1720 0
M  V30 154 C -0.9311 -5.2538 -8.6572 0
M  V30 155 C 3.1556 -1.7891 -11.0846 0
M  V30 156 C 3.6833 -0.6343 -11.6355 0
M  V30 157 C 2.9556 0.5400 -11.5572 0
M  V30 158 C -1.7370 3.9976 -10.7215 0
M  V30 159 C -2.4304 5.1872 -10.7900 0
M  V30 160 C -2.6289 8.3498 -12.4148 0
M  V30 161 C -3.5045 9.4403 -12.5410 0
M  V30 162 C -4.3628 9.7836 -11.5287 0
M  V30 163 C -4.3204 9.0799 -10.3106 0
M  V30 164 H -5.9191 10.1152 -9.2974 0
M  V30 165 H -5.7078 8.8042 -7.2182 0
M  V30 166 H -2.4489 6.7367 -8.7232 0
M  V30 167 H 0.0765 7.2357 -11.7746 0
M  V30 168 H 1.3308 5.1264 -11.6177 0
M  V30 169 H 2.1932 -6.3341 -9.4060 0
M  V30 170 H 1.2534 -8.4335 -8.5419 0
M  V30 171 H -0.6735 -10.2488 -8.9524 0
M  V30 172 H -1.8814 -12.0927 -7.9117 0
M  V30 173 H -3.2722 -11.7754 -5.9142 0
M  V30 174 H -4.5215 -9.0849 -4.7599 0
M  V30 175 H -3.1795 -10.9908 -3.5397 0
M  V30 176 H -1.5972 -6.6099 -5.5813 0
M  V30 177 H -2.4884 -6.4758 -7.8733 0
M  V30 178 H -1.5441 -4.3679 -8.7201 0
M  V30 179 H 3.6843 -2.7280 -11.1366 0
M  V30 180 H 4.6458 -0.6512 -12.1264 0
M  V30 181 H 3.3243 1.4583 -11.9867 0
M  V30 182 H -2.2463 3.0803 -10.4706 0
M  V30 183 H -3.4917 5.2021 -10.5910 0
M  V30 184 H -2.0187 8.0660 -13.2590 0
M  V30 185 H -3.5202 9.9895 -13.4702 0
M  V30 186 H -5.0710 10.5880 -11.6529 0
M  V30 END ATOM
M  V30 BEGIN BOND
M  V30 1 2 3 4
M  V30 2 1 4 5
M  V30 3 2 5 6
M  V30 4 1 6 7
M  V30 5 2 7 8
M  V30 6 1 8 9
M  V30 7 2 9 10
M  V30 8 1 10 11
M  V30 9 2 11 12
M  V30 10 1 12 13
M  V30 11 1 12 14
M  V30 12 2 14 15
M  V30 13 1 15 16
M  V30 14 2 16 17
M  V30 15 1 17 18
M  V30 16 2 18 19
M  V30 17 1 8 3
M  V30 18 1 13 9
M  V30 19 1 19 14
M  V30 20 1 3 20
M  V30 21 1 4 21
M  V30 22 1 6 22
M  V30 23 1 7 23
M  V30 24 1 10 24
M  V30 25 1 11 25
M  V30 26 1 15 26
M  V30 27 1 16 27
M  V30 28 1 18 28
M  V30 29 1 19 29
M  V30 30 2 30 31
M  V30 31 1 31 32
M  V30 32 2 32 33
M  V30 33 1 33 34
M  V30 34 2 34 35
M  V30 35 1 35 36
M  V30 36 2 36 37
M  V30 37 1 37 38
M  V30 38 2 38 39
M  V30 39 1 39 40
M  V30 40 1 39 41
M  V30 41 2 41 42
M  V30 42 1 42 43
M  V30 43 2 43 44
M  V30 44 1 44 45
M  V30 45 2 45 46
M  V30 46 1 35 30
M  V30 47 1 40 36
M  V30 48 1 46 41
M  V30 49 1 30 47
M  V30 50 1 31 48
M  V30 51 1 33 49
M  V30 52 1 34 50
M  V30 53 1 37 51
M  V30 54 1 38 52
M  V30 55 1 42 53
M  V30 56 1 43 54
M  V30 57 1 45 55
M  V30 58 1 46 56
M  V30 59 2 57 58
M  V30 60 1 58 59
M  V30 61 2 59 60
M  V30 62 1 60 61
M  V30 63 2 61 62
M  V30 64 1 62 63
M  V30 65 2 63 64
M  V30 66 1 64 65
M  V30 67 2 65 66
M  V30 68 1 66 67
M  V30 69 3 67 68
M  V30 70 1 68 69
M  V30 71 2 69 70
M  V30 72 1 70 71
M  V30 73 1 71 72
M  V30 74 3 72 73
M  V30 75 1 73 74
M  V30 76 2 74 75
M  V30 77 1 75 76
M  V30 78 2 76 77
M  V30 79 1 77 78
M  V30 80 2 78 79
M  V30 81 1 79 80
M  V30 82 2 80 81
M  V30 83 1 81 82
M  V30 84 2 82 83
M  V30 85 1 83 84
M  V30 86 2 84 85
M  V30 87 1 85 86
M  V30 88 2 86 87
M  V30 89 1 77 88
M  V30 90 2 88 89
M  V30 91 2 71 90
M  V30 92 1 90 91
M  V30 93 2 91 92
M  V30 94 1 66 93
M  V30 95 2 93 94
M  V30 96 1 62 95
M  V30 97 2 95 96
M  V30 98 1 96 97
M  V30 99 2 97 98
M  V30 100 1 98 57
M  V30 101 1 98 61
M  V30 102 1 94 63
M  V30 103 1 92 69
M  V30 104 1 89 74
M  V30 105 1 87 78
M  V30 106 1 87 82
M  V30 107 1 57 99
M  V30 108 1 58 100
M  V30 109 1 60 101
M  V30 110 1 64 102
M  V30 111 1 65 103
M  V30 112 1 75 104
M  V30 113 1 76 105
M  V30 114 1 79 106
M  V30 115 1 80 107
M  V30 116 1 81 108
M  V30 117 1 83 109
M  V30 118 1 84 110
M  V30 119 1 86 111
M  V30 120 1 88 112
M  V30 121 1 89 113
M  V30 122 1 90 114
M  V30 123 1 91 115
M  V30 124 1 92 116
M  V30 125 1 93 117
M  V30 126 1 94 118
M  V30 127 1 95 119
M  V30 128 1 96 120
M  V30 129 1 97 121
M  V30 130 2 122 123
M  V30 131 1 123 124
M  V30 132 2 124 125
M  V30 133 1 125 126
M  V30 134 2 126 127
M  V30 135 1 127 128
M  V30 136 2 128 129
M  V30 137 1 129 130
M  V30 138 2 130 131
M  V30 139 1 131 132
M  V30 140 3 132 133
M  V30 141 1 133 134
M  V30 142 2 134 135
M  V30 143 1 135 136
M  V30 144 1 136 137
M  V30 145 3 137 138
M  V30 146 1 138 139
M  V30 147 2 139 140
M  V30 148 1 140 141
M  V30 149 2 141 142
M  V30 150 1 142 143
M  V30 151 2 143 144
M  V30 152 1 144 145
M  V30 153 2 145 146
M  V30 154 1 146 147
M  V30 155 2 147 148
M  V30 156 1 148 149
M  V30 157 2 149 150
M  V30 158 1 150 151
M  V30 159 2 151 152
M  V30 160 1 142 153
M  V30 161 2 153 154
M  V30 162 2 136 155
M  V30 163 1 155 156
M  V30 164 2 156 157
M  V30 165 1 131 158
M  V30 166 2 158 159
M  V30 167 1 127 160
M  V30 168 2 160 161
M  V30 169 1 161 162
M  V30 170 2 162 163
M  V30 171 1 163 122
M  V30 172 1 163 126
M  V30 173 1 159 128
M  V30 174 1 157 134
M  V30 175 1 154 139
M  V30 176 1 152 143
M  V30 177 1 152 147
M  V30 178 1 122 164
M  V30 179 1 123 165
M  V30 180 1 125 166
M  V30 181 1 129 167
M  V30 182 1 130 168
M  V30 183 1 140 169
M  V30 184 1 141 170
M  V30 185 1 144 171
M  V30 186 1 145 172
M  V30 187 1 146 173
M  V30 188 1 148 174
M  V30 189 1 149 175
M  V30 190 1 151 176
M  V30 191 1 153 177
M  V30 192 1 154 178
M  V30 193 1 155 179
M  V30 194 1 156 180
M  V30 195 1 157 181
M  V30 196 1 158 182
M  V30 197 1 159 183
M  V30 198 1 160 184
M  V30 199 1 161 185
M  V30 200 1 162 186
M  V30 201 9 5 1
M  V30 202 9 32 1
M  V30 203 9 59 1
M  V30 204 9 124 1
M  V30 205 9 17 2
M  V30 206 9 44 2
M  V30 207 9 85 2
M  V30 208 9 150 2
M  V30 END BOND
M  V30 END CTAB
M  END

$$$$
