
     RDKit          3D

  0  0  0  0  0  0  0  0  0  0999 V3000
M  V30 BEGIN CTAB
M  V30 COUNTS 188 210 0 0 0
M  V30 BEGIN ATOM
M  V30 1 Pd -3.2056 7.1028 0.7209 0 CHG=2
M  V30 2 Pd -2.8012 -5.0283 -0.3878 0 CHG=2
M  V30 3 C 2.5706 1.3872 -1.6033 0
M  V30 4 C 1.9624 0.1439 -1.5754 0
M  V30 5 C 0.5889 0.0452 -1.3596 0
M  V30 6 C -0.1561 1.2052 -1.1685 0
M  V30 7 C 0.4591 2.4542 -1.1541 0
M  V30 8 C 1.8333 2.5368 -1.3784 0
M  V30 9 C -0.3433 3.6476 -0.8591 0
M  V30 10 C -1.6431 3.7914 -1.3554 0
M  V30 11 C -2.4047 4.8757 -0.9687 0
M  V30 12 N -1.9442 5.8034 -0.1257 0
M  V30 13 C -0.6906 5.7091 0.3234 0
M  V30 14 C 0.1385 4.6592 -0.0233 0
M  V30 15 C -0.0884 -1.2563 -1.2889 0
M  V30 16 C -1.3349 -1.4517 -1.8924 0
M  V30 17 C -1.9971 -2.6479 -1.7084 0
M  V30 18 N -1.4927 -3.6336 -0.9590 0
M  V30 19 C -0.2831 -3.4854 -0.4183 0
M  V30 20 C 0.4529 -2.3239 -0.5694 0
M  V30 21 H 3.6309 1.4598 -1.7904 0
M  V30 22 H 2.5500 -0.7448 -1.7470 0
M  V30 23 H -1.2132 1.1286 -0.9661 0
M  V30 24 H 2.3232 3.4978 -1.4022 0
M  V30 25 H -2.0513 3.0663 -2.0403 0
M  V30 26 H -3.4208 5.0078 -1.3351 0
M  V30 27 H -0.3492 6.4964 0.9925 0
M  V30 28 H 1.1360 4.6069 0.3821 0
M  V30 29 H -1.7769 -0.6796 -2.5009 0
M  V30 30 H -2.9705 -2.8282 -2.1648 0
M  V30 31 H 0.0992 -4.3185 0.1647 0
M  V30 32 H 1.4181 -2.2334 -0.0976 0
M  V30 33 C -3.7741 0.4812 5.9477 0
M  V30 34 C -3.7411 -0.6383 5.1344 0
M  V30 35 C -3.7599 -0.4961 3.7469 0
M  V30 36 C -3.8202 0.7817 3.1974 0
M  V30 37 C -3.8182 1.9098 4.0126 0
M  V30 38 C -3.7922 1.7513 5.3971 0
M  V30 39 C -3.8033 3.2395 3.3887 0
M  V30 40 C -4.6069 3.5222 2.2794 0
M  V30 41 C -4.4829 4.7412 1.6455 0
M  V30 42 N -3.6078 5.6681 2.0488 0
M  V30 43 C -2.8702 5.4371 3.1351 0
M  V30 44 C -2.9469 4.2476 3.8369 0
M  V30 45 C -3.6721 -1.6589 2.8549 0
M  V30 46 C -4.3972 -1.7153 1.6601 0
M  V30 47 C -4.2067 -2.7749 0.7963 0
M  V30 48 N -3.3438 -3.7597 1.0587 0
M  V30 49 C -2.6759 -3.7484 2.2144 0
M  V30 50 C -2.8167 -2.7281 3.1360 0
M  V30 51 H -3.7739 0.3632 7.0203 0
M  V30 52 H -3.7259 -1.6209 5.5798 0
M  V30 53 H -3.8045 0.9029 2.1252 0
M  V30 54 H -3.8124 2.6156 6.0428 0
M  V30 55 H -5.3218 2.7994 1.9213 0
M  V30 56 H -5.0943 4.9890 0.7777 0
M  V30 57 H -2.1877 6.2249 3.4414 0
M  V30 58 H -2.3172 4.0892 4.6976 0
M  V30 59 H -5.1057 -0.9421 1.4123 0
M  V30 60 H -4.7531 -2.8394 -0.1427 0
M  V30 61 H -1.9979 -4.5796 2.3969 0
M  V30 62 H -2.2392 -2.7437 4.0461 0
M  V30 63 C -4.8970 -8.3501 1.1906 0
M  V30 64 C -6.2016 -8.2070 0.6660 0
M  V30 65 C -6.4896 -7.0298 -0.0872 0
M  V30 66 C -7.8126 -6.8086 -0.5718 0
M  V30 67 C -8.7534 -7.7976 -0.3809 0
M  V30 68 C -8.4508 -8.9752 0.3155 0
M  V30 69 C -7.2071 -9.1720 0.8566 0
M  V30 70 C -8.1939 -5.5372 -1.2014 0
M  V30 71 C -7.8183 -4.3228 -0.6180 0
M  V30 72 C -8.1969 -3.1247 -1.1807 0
M  V30 73 C -8.9755 -3.1033 -2.3449 0
M  V30 74 C -9.3470 -1.8533 -2.8699 0
M  V30 75 C -9.6463 -0.7329 -3.2201 0
M  V30 76 C -9.9400 0.6003 -3.4780 0
M  V30 77 C -10.8576 1.1663 -4.3294 0
M  V30 78 C -10.9091 2.5654 -4.2391 0
M  V30 79 C -10.0300 3.0824 -3.3216 0
M  V30 80 C -9.8303 4.3904 -2.8836 0
M  V30 81 C -9.5917 5.4500 -2.3492 0
M  V30 82 C -9.2511 6.6202 -1.6383 0
M  V30 83 C -10.0048 7.0161 -0.5305 0
M  V30 84 C -9.5654 8.0503 0.2710 0
M  V30 85 C -8.3680 8.7075 -0.0095 0
M  V30 86 C -7.8425 9.7130 0.9276 0
M  V30 87 C -6.5182 9.5919 1.4396 0
M  V30 88 C -6.0164 10.5785 2.3383 0
M  V30 89 C -4.6933 10.4248 2.8121 0
M  V30 90 C -3.9411 9.3609 2.4010 0
M  V30 91 N -4.4365 8.4169 1.5688 0
M  V30 92 C -5.6691 8.5160 1.1215 0
M  V30 93 C -6.8428 11.6513 2.7208 0
M  V30 94 C -8.1223 11.7327 2.2374 0
M  V30 95 C -8.6189 10.7683 1.3486 0
M  V30 96 C -7.6637 8.3645 -1.1655 0
M  V30 97 C -8.0957 7.3312 -1.9698 0
M  V30 98 S -9.1063 1.8230 -2.5559 0
M  V30 99 C -9.3723 -4.3135 -2.9200 0
M  V30 100 C -8.9869 -5.5114 -2.3500 0
M  V30 101 C -5.4175 -6.1582 -0.3500 0
M  V30 102 N -4.2104 -6.3324 0.1472 0
M  V30 103 C -3.9507 -7.3979 0.9362 0
M  V30 104 H -4.6606 -9.2170 1.7866 0
M  V30 105 H -9.7598 -7.6506 -0.7428 0
M  V30 106 H -9.2223 -9.7187 0.4466 0
M  V30 107 H -6.9863 -10.0602 1.4278 0
M  V30 108 H -7.2677 -4.3277 0.3109 0
M  V30 109 H -7.9193 -2.1887 -0.7229 0
M  V30 110 H -11.4819 0.5861 -4.9863 0
M  V30 111 H -11.5755 3.1781 -4.8209 0
M  V30 112 H -10.9174 6.4917 -0.2907 0
M  V30 113 H -10.1325 8.3280 1.1468 0
M  V30 114 H -4.2892 11.1566 3.4933 0
M  V30 115 H -2.9177 9.2175 2.7388 0
M  V30 116 H -6.0268 7.7083 0.4862 0
M  V30 117 H -6.4585 12.3998 3.3962 0
M  V30 118 H -8.7620 12.5503 2.5333 0
M  V30 119 H -9.6256 10.8710 0.9719 0
M  V30 120 H -6.7803 8.9239 -1.4382 0
M  V30 121 H -7.5410 7.0540 -2.8523 0
M  V30 122 H -9.9800 -4.3075 -3.8126 0
M  V30 123 H -9.2850 -6.4400 -2.8136 0
M  V30 124 H -5.5582 -5.3020 -1.0095 0
M  V30 125 H -2.9453 -7.4673 1.3403 0
M  V30 126 C -1.1865 -8.3627 -2.3611 0
M  V30 127 C -1.8938 -8.4278 -3.5834 0
M  V30 128 C -2.8112 -7.3762 -3.8760 0
M  V30 129 C -3.5545 -7.4069 -5.0913 0
M  V30 130 C -3.3359 -8.4408 -5.9728 0
M  V30 131 C -2.4280 -9.4695 -5.6826 0
M  V30 132 C -1.7229 -9.4748 -4.5079 0
M  V30 133 C -4.5131 -6.3337 -5.3991 0
M  V30 134 C -5.5061 -5.9732 -4.4859 0
M  V30 135 C -6.3167 -4.8836 -4.7244 0
M  V30 136 C -6.1568 -4.1321 -5.8906 0
M  V30 137 C -6.8539 -2.9160 -6.0506 0
M  V30 138 C -7.3673 -1.8238 -6.1453 0
M  V30 139 C -7.7672 -0.4901 -6.2084 0
M  V30 140 C -8.7981 0.1084 -6.8874 0
M  V30 141 C -8.8078 1.5057 -6.7616 0
M  V30 142 C -7.7810 1.9887 -5.9875 0
M  V30 143 C -7.4080 3.2936 -5.6900 0
M  V30 144 C -6.9551 4.3811 -5.4079 0
M  V30 145 C -6.3097 5.5870 -5.0832 0
M  V30 146 C -6.8821 6.8397 -5.3197 0
M  V30 147 C -6.1920 7.9905 -4.9911 0
M  V30 148 C -4.9223 7.9259 -4.4145 0
M  V30 149 C -4.1705 9.1472 -4.0966 0
M  V30 150 C -3.4515 9.2784 -2.8718 0
M  V30 151 C -2.5989 10.4048 -2.6712 0
M  V30 152 C -1.8481 10.4572 -1.4749 0
M  V30 153 C -1.9829 9.4696 -0.5404 0
M  V30 154 N -2.8598 8.4546 -0.7022 0
M  V30 155 C -3.5685 8.3650 -1.8088 0
M  V30 156 C -2.5361 11.4109 -3.6523 0
M  V30 157 C -3.2956 11.3024 -4.7880 0
M  V30 158 C -4.0951 10.1740 -5.0129 0
M  V30 159 C -4.3456 6.6696 -4.2009 0
M  V30 160 C -5.0272 5.5181 -4.5242 0
M  V30 161 S -6.7886 0.6882 -5.3839 0
M  V30 162 C -5.2225 -4.5406 -6.8458 0
M  V30 163 C -4.4132 -5.6311 -6.5994 0
M  V30 164 C -2.9150 -6.3305 -2.9404 0
M  V30 165 N -2.2529 -6.3143 -1.8044 0
M  V30 166 C -1.3995 -7.3197 -1.5047 0
M  V30 167 H -0.4860 -9.1450 -2.1155 0
M  V30 168 H -3.8893 -8.4753 -6.8993 0
M  V30 169 H -2.2952 -10.2672 -6.3976 0
M  V30 170 H -1.0327 -10.2726 -4.2812 0
M  V30 171 H -5.6485 -6.5627 -3.5915 0
M  V30 172 H -7.0710 -4.5939 -4.0099 0
M  V30 173 H -9.5177 -0.4451 -7.4650 0
M  V30 174 H -9.5342 2.1435 -7.2344 0
M  V30 175 H -7.8666 6.9035 -5.7588 0
M  V30 176 H -6.6520 8.9524 -5.1621 0
M  V30 177 H -1.1755 11.2838 -1.3104 0
M  V30 178 H -1.4066 9.4692 0.3797 0
M  V30 179 H -4.2864 7.5470 -1.8675 0
M  V30 180 H -1.8892 12.2604 -3.4981 0
M  V30 181 H -3.2621 12.0781 -5.5380 0
M  V30 182 H -4.6344 10.0951 -5.9448 0
M  V30 183 H -3.3355 6.6062 -3.8244 0
M  V30 184 H -4.5768 4.5501 -4.3729 0
M  V30 185 H -5.1197 -3.9831 -7.7645 0
M  V30 186 H -3.6676 -5.9203 -7.3248 0
M  V30 187 H -3.5581 -5.4771 -3.1455 0
M  V30 188 H -0.8791 -7.2437 -0.5531 0
M  V30 END ATOM
M  V30 BEGIN BOND
M  V30 1 2 3 4
M  V30 2 1 4 5
M  V30 3 2 5 6
M  V30 4 1 6 7
M  V30 5 2 7 8
M  V30 6 1 7 9
M  V30 7 2 9 10
M  V30 8 1 10 11
M  V30 9 2 11 12
M  V30 10 1 12 13
M  V30 11 2 13 14
M  V30 12 1 5 15
M  V30 13 2 15 16
M  V30 14 1 16 17
M  V30 15 2 17 18
M  V30 16 1 18 19
M  V30 17 2 19 20
M  V30 18 1 8 3
M  V30 19 1 14 9
M  V30 20 1 20 15
M  V30 21 1 3 21
M  V30 22 1 4 22
M  V30 23 1 6 23
M  V30 24 1 8 24
M  V30 25 1 10 25
M  V30 26 1 11 26
M  V30 27 1 13 27
M  V30 28 1 14 28
M  V30 29 1 16 29
M  V30 30 1 17 30
M  V30 31 1 19 31
M  V30 32 1 20 32
M  V30 33 2 33 34
M  V30 34 1 34 35
M  V30 35 2 35 36
M  V30 36 1 36 37
M  V30 37 2 37 38
M  V30 38 1 37 39
M  V30 39 2 39 40
M  V30 40 1 40 41
M  V30 41 2 41 42
M  V30 42 1 42 43
M  V30 43 2 43 44
M  V30 44 1 35 45
M  V30 45 2 45 46
M  V30 46 1 46 47
M  V30 47 2 47 48
M  V30 48 1 48 49
M  V30 49 2 49 50
M  V30 50 1 38 33
M  V30 51 1 44 39
M  V30 52 1 50 45
M  V30 53 1 33 51
M  V30 54 1 34 52
M  V30 55 1 36 53
M  V30 56 1 38 54
M  V30 57 1 40 55
M  V30 58 1 41 56
M  V30 59 1 43 57
M  V30 60 1 44 58
M  V30 61 1 46 59
M  V30 62 1 47 60
M  V30 63 1 49 61
M  V30 64 1 50 62
M  V30 65 2 63 64
M  V30 66 1 64 65
M  V30 67 1 65 66
M  V30 68 2 66 67
M  V30 69 1 67 68
M  V30 70 2 68 69
M  V30 71 1 66 70
M  V30 72 2 70 71
M  V30 73 1 71 72
M  V30 74 2 72 73
M  V30 75 1 73 74
M  V30 76 3 74 75
M  V30 77 1 75 76
M  V30 78 2 76 77
M  V30 79 1 77 78
M  V30 80 2 78 79
M  V30 81 1 79 80
M  V30 82 3 80 81
M  V30 83 1 81 82
M  V30 84 2 82 83
M  V30 85 1 83 84
M  V30 86 2 84 85
M  V30 87 1 85 86
M  V30 88 1 86 87
M  V30 89 1 87 88
M  V30 90 2 88 89
M  V30 91 1 89 90
M  V30 92 2 90 91
M  V30 93 1 91 92
M  V30 94 1 88 93
M  V30 95 2 93 94
M  V30 96 1 94 95
M  V30 97 1 85 96
M  V30 98 2 96 97
M  V30 99 1 79 98
M  V30 100 1 73 99
M  V30 101 2 99 100
M  V30 102 2 65 101
M  V30 103 1 101 102
M  V30 104 2 102 103
M  V30 105 1 103 63
M  V30 106 1 69 64
M  V30 107 1 100 70
M  V30 108 1 98 76
M  V30 109 1 97 82
M  V30 110 2 95 86
M  V30 111 2 92 87
M  V30 112 1 63 104
M  V30 113 1 67 105
M  V30 114 1 68 106
M  V30 115 1 69 107
M  V30 116 1 71 108
M  V30 117 1 72 109
M  V30 118 1 77 110
M  V30 119 1 78 111
M  V30 120 1 83 112
M  V30 121 1 84 113
M  V30 122 1 89 114
M  V30 123 1 90 115
M  V30 124 1 92 116
M  V30 125 1 93 117
M  V30 126 1 94 118
M  V30 127 1 95 119
M  V30 128 1 96 120
M  V30 129 1 97 121
M  V30 130 1 99 122
M  V30 131 1 100 123
M  V30 132 1 101 124
M  V30 133 1 103 125
M  V30 134 2 126 127
M  V30 135 1 127 128
M  V30 136 1 128 129
M  V30 137 2 129 130
M  V30 138 1 130 131
M  V30 139 2 131 132
M  V30 140 1 129 133
M  V30 141 2 133 134
M  V30 142 1 134 135
M  V30 143 2 135 136
M  V30 144 1 136 137
M  V30 145 3 137 138
M  V30 146 1 138 139
M  V30 147 2 139 140
M  V30 148 1 140 141
M  V30 149 2 141 142
M  V30 150 1 142 143
M  V30 151 3 143 144
M  V30 152 1 144 145
M  V30 153 2 145 146
M  V30 154 1 146 147
M  V30 155 2 147 148
M  V30 156 1 148 149
M  V30 157 1 149 150
M  V30 158 1 150 151
M  V30 159 2 151 152
M  V30 160 1 152 153
M  V30 161 2 153 154
M  V30 162 1 154 155
M  V30 163 1 151 156
M  V30 164 2 156 157
M  V30 165 1 157 158
M  V30 166 1 148 159
M  V30 167 2 159 160
M  V30 168 1 142 161
M  V30 169 1 136 162
M  V30 170 2 162 163
M  V30 171 2 128 164
M  V30 172 1 164 165
M  V30 173 2 165 166
M  V30 174 1 166 126
M  V30 175 1 132 127
M  V30 176 1 163 133
M  V30 177 1 161 139
M  V30 178 1 160 145
M  V30 179 2 158 149
M  V30 180 2 155 150
M  V30 181 1 126 167
M  V30 182 1 130 168
M  V30 183 1 131 169
M  V30 184 1 132 170
M  V30 185 1 134 171
M  V30 186 1 135 172
M  V30 187 1 140 173
M  V30 188 1 141 174
M  V30 189 1 146 175
M  V30 190 1 147 176
M  V30 191 1 152 177
M  V30 192 1 153 178
M  V30 193 1 155 179
M  V30 194 1 156 180
M  V30 195 1 157 181
M  V30 196 1 158 182
M  V30 197 1 159 183
M  V30 198 1 160 184
M  V30 199 1 162 185
M  V30 200 1 163 186
M  V30 201 1 164 187
M  V30 202 1 166 188
M  V30 203 9 12 1
M  V30 204 9 42 1
M  V30 205 9 91 1
M  V30 206 9 154 1
M  V30 207 9 18 2
M  V30 208 9 48 2
M  V30 209 9 102 2
M  V30 210 9 165 2
M  V30 END BOND
M  V30 END CTAB
M  END

$$$$
