
     RDKit          3D

  0  0  0  0  0  0  0  0  0  0999 V3000
M  V30 BEGIN CTAB
M  V30 COUNTS 212 238 0 0 0
M  V30 BEGIN ATOM
M  V30 1 Pd -4.5085 6.4504 -1.0242 0 CHG=2
M  V30 2 Pd -4.4224 -5.5472 -3.1199 0 CHG=2
M  V30 3 C 1.3007 0.6719 -3.0929 0
M  V30 4 C 0.6248 -0.5236 -3.2664 0
M  V30 5 C -0.7690 -0.5468 -3.2441 0
M  V30 6 C -1.4664 0.6417 -3.0483 0
M  V30 7 C -0.7884 1.8373 -2.8293 0
M  V30 8 C 0.6055 1.8449 -2.8546 0
M  V30 9 C -1.5580 3.0501 -2.5240 0
M  V30 10 C -2.7364 3.3558 -3.2120 0
M  V30 11 C -3.4916 4.4416 -2.8170 0
M  V30 12 N -3.1401 5.2142 -1.7855 0
M  V30 13 C -1.9954 4.9666 -1.1467 0
M  V30 14 C -1.1753 3.9082 -1.4899 0
M  V30 15 C -1.5187 -1.8032 -3.3690 0
M  V30 16 C -2.6918 -1.8773 -4.1265 0
M  V30 17 C -3.4294 -3.0440 -4.1241 0
M  V30 18 N -3.0659 -4.1132 -3.4104 0
M  V30 19 C -1.9255 -4.0777 -2.7190 0
M  V30 20 C -1.1224 -2.9533 -2.6819 0
M  V30 21 H 2.3792 0.6869 -3.1289 0
M  V30 22 H 1.1799 -1.4319 -3.4427 0
M  V30 23 H -2.5443 0.6243 -2.9997 0
M  V30 24 H 1.1459 2.7681 -2.7128 0
M  V30 25 H -3.0531 2.7540 -4.0482 0
M  V30 26 H -4.4146 4.7063 -3.3308 0
M  V30 27 H -1.7377 5.6309 -0.3252 0
M  V30 28 H -0.2693 3.7267 -0.9346 0
M  V30 29 H -3.0180 -1.0341 -4.7133 0
M  V30 30 H -4.3478 -3.1346 -4.7026 0
M  V30 31 H -1.6576 -4.9753 -2.1669 0
M  V30 32 H -0.2195 -2.9555 -2.0928 0
M  V30 33 C -6.1399 -0.5270 3.4569 0
M  V30 34 C -6.0233 -1.5929 2.5815 0
M  V30 35 C -5.8441 -1.3603 1.2186 0
M  V30 36 C -5.7872 -0.0497 0.7537 0
M  V30 37 C -5.8602 1.0231 1.6373 0
M  V30 38 C -6.0389 0.7749 2.9976 0
M  V30 39 C -5.6931 2.3873 1.1203 0
M  V30 40 C -6.2933 2.7891 -0.0771 0
M  V30 41 C -6.0171 4.0410 -0.5887 0
M  V30 42 N -5.1821 4.8886 0.0187 0
M  V30 43 C -4.6370 4.5417 1.1858 0
M  V30 44 C -4.8746 3.3128 1.7724 0
M  V30 45 C -5.6601 -2.4645 0.2682 0
M  V30 46 C -6.2545 -2.4409 -0.9973 0
M  V30 47 C -5.9631 -3.4405 -1.9036 0
M  V30 48 N -5.1189 -4.4352 -1.6172 0
M  V30 49 C -4.5786 -4.5007 -0.3991 0
M  V30 50 C -4.8307 -3.5477 0.5697 0
M  V30 51 H -6.2961 -0.7128 4.5084 0
M  V30 52 H -6.0956 -2.6027 2.9549 0
M  V30 53 H -5.6182 0.1359 -0.2958 0
M  V30 54 H -6.1233 1.5960 3.6926 0
M  V30 55 H -6.9709 2.1315 -0.5967 0
M  V30 56 H -6.4670 4.3844 -1.5193 0
M  V30 57 H -3.9783 5.2681 1.6556 0
M  V30 58 H -4.3971 3.0600 2.7054 0
M  V30 59 H -6.9397 -1.6532 -1.2650 0
M  V30 60 H -6.4080 -3.4509 -2.8976 0
M  V30 61 H -3.9116 -5.3366 -0.2020 0
M  V30 62 H -4.3566 -3.6224 1.5350 0
M  V30 63 C -6.4374 9.3374 1.3238 0
M  V30 64 C -5.6126 8.3523 0.8612 0
M  V30 65 N -5.8886 7.6644 -0.2699 0
M  V30 66 C -6.9929 7.9125 -0.9402 0
M  V30 67 C -7.9308 8.8813 -0.5401 0
M  V30 68 C -9.1206 9.1558 -1.2728 0
M  V30 69 C -9.5324 8.3343 -2.4210 0
M  V30 70 C -9.6044 6.9435 -2.3142 0
M  V30 71 C -10.0682 6.1809 -3.3648 0
M  V30 72 C -10.4762 6.7916 -4.5544 0
M  V30 73 C -11.0103 6.0046 -5.5949 0
M  V30 74 C -11.5166 5.3041 -6.4392 0
M  V30 75 C -12.1304 4.4444 -7.3743 0
M  V30 76 C -11.8388 3.0827 -7.3413 0
M  V30 77 C -12.4913 2.2498 -8.2325 0
M  V30 78 C -12.4776 0.8328 -8.4828 0
M  V30 79 C -11.8074 -0.2430 -7.9282 0
M  V30 80 C -12.0738 -1.5162 -8.4266 0
M  V30 81 C -11.4437 -2.6344 -7.8404 0
M  V30 82 C -10.9264 -3.5758 -7.2871 0
M  V30 83 C -10.3829 -4.6687 -6.5816 0
M  V30 84 C -10.2879 -5.9317 -7.1705 0
M  V30 85 C -9.8205 -7.0051 -6.4413 0
M  V30 86 C -9.4281 -6.8488 -5.1115 0
M  V30 87 C -9.0157 -8.0153 -4.3163 0
M  V30 88 C -9.8060 -9.1444 -4.3019 0
M  V30 89 C -9.4941 -10.2501 -3.5000 0
M  V30 90 C -8.3842 -10.2441 -2.6962 0
M  V30 91 C -7.5260 -9.1299 -2.6997 0
M  V30 92 C -6.3464 -9.0747 -1.9227 0
M  V30 93 C -5.5245 -7.9876 -2.0099 0
M  V30 94 N -5.7975 -6.9524 -2.8359 0
M  V30 95 C -6.8967 -6.9570 -3.5588 0
M  V30 96 C -7.8315 -8.0072 -3.5253 0
M  V30 97 C -9.5115 -5.5817 -4.5297 0
M  V30 98 C -9.9810 -4.5055 -5.2525 0
M  V30 99 C -12.9921 -1.6963 -9.4730 0
M  V30 100 C -13.6672 -0.6300 -10.0325 0
M  V30 101 C -13.4038 0.6322 -9.5265 0
M  V30 102 O -13.9703 1.8046 -9.9282 0
M  V30 103 C -13.4248 2.7786 -9.1469 0
M  V30 104 C -13.7139 4.1326 -9.1902 0
M  V30 105 C -13.0565 4.9551 -8.2974 0
M  V30 106 C -10.3951 8.1813 -4.6685 0
M  V30 107 C -9.9328 8.9391 -3.6128 0
M  V30 108 C -9.9152 10.2052 -0.8642 0
M  V30 109 C -9.6016 10.9668 0.2691 0
M  V30 110 C -8.4855 10.6898 1.0147 0
M  V30 111 C -7.6232 9.6509 0.6211 0
M  V30 112 H -6.1901 9.8927 2.2146 0
M  V30 113 H -4.6909 8.0887 1.3744 0
M  V30 114 H -7.1585 7.3432 -1.8527 0
M  V30 115 H -9.3472 6.4683 -1.3792 0
M  V30 116 H -10.1517 5.1096 -3.2708 0
M  V30 117 H -11.1258 2.6911 -6.6344 0
M  V30 118 H -11.1004 -0.1039 -7.1268 0
M  V30 119 H -10.6032 -6.0640 -8.1942 0
M  V30 120 H -9.7538 -7.9784 -6.9043 0
M  V30 121 H -10.7050 -9.1690 -4.8993 0
M  V30 122 H -10.1510 -11.1068 -3.5107 0
M  V30 123 H -8.1548 -11.0871 -2.0631 0
M  V30 124 H -6.1012 -9.9027 -1.2769 0
M  V30 125 H -4.6077 -7.9143 -1.4300 0
M  V30 126 H -7.0603 -6.1076 -4.2195 0
M  V30 127 H -9.2596 -5.4582 -3.4869 0
M  V30 128 H -10.0742 -3.5342 -4.7927 0
M  V30 129 H -13.1786 -2.6945 -9.8395 0
M  V30 130 H -14.3777 -0.7682 -10.8320 0
M  V30 131 H -14.4301 4.5229 -9.8958 0
M  V30 132 H -13.2630 6.0147 -8.3000 0
M  V30 133 H -10.7164 8.6581 -5.5819 0
M  V30 134 H -9.8758 10.0132 -3.7094 0
M  V30 135 H -10.8185 10.4296 -1.4113 0
M  V30 136 H -10.2616 11.7702 0.5593 0
M  V30 137 H -8.2546 11.2632 1.8990 0
M  V30 138 C -2.5331 9.9698 -2.1641 0
M  V30 139 C -2.8899 8.7953 -1.5655 0
M  V30 140 N -3.8415 7.9894 -2.0884 0
M  V30 141 C -4.4283 8.3102 -3.2212 0
M  V30 142 C -4.1182 9.4779 -3.9410 0
M  V30 143 C -4.7630 9.8286 -5.1613 0
M  V30 144 C -5.6925 8.9115 -5.8380 0
M  V30 145 C -5.3227 7.5917 -6.1066 0
M  V30 146 C -6.1635 6.7550 -6.8092 0
M  V30 147 C -7.4015 7.2183 -7.2645 0
M  V30 148 C -8.2249 6.3715 -8.0342 0
M  V30 149 C -8.8782 5.6369 -8.7366 0
M  V30 150 C -9.5880 4.7571 -9.5808 0
M  V30 151 C -9.3239 3.3906 -9.5218 0
M  V30 152 C -9.9976 2.5534 -10.3932 0
M  V30 153 C -9.9841 1.1363 -10.6437 0
M  V30 154 C -9.2932 0.0636 -10.1091 0
M  V30 155 C -9.5325 -1.2045 -10.6336 0
M  V30 156 C -8.8050 -2.3062 -10.1365 0
M  V30 157 C -8.1358 -3.2223 -9.7213 0
M  V30 158 C -7.2932 -4.2614 -9.2773 0
M  V30 159 C -6.0648 -3.9511 -8.6861 0
M  V30 160 C -5.2053 -4.9568 -8.2986 0
M  V30 161 C -5.5468 -6.2978 -8.4883 0
M  V30 162 C -4.5990 -7.3691 -8.1469 0
M  V30 163 C -4.2837 -8.3292 -9.0839 0
M  V30 164 C -3.3313 -9.3237 -8.8247 0
M  V30 165 C -2.6773 -9.3737 -7.6214 0
M  V30 166 C -2.9876 -8.4377 -6.6186 0
M  V30 167 C -2.3782 -8.4559 -5.3432 0
M  V30 168 C -2.7615 -7.5531 -4.3929 0
M  V30 169 N -3.7271 -6.6363 -4.6290 0
M  V30 170 C -4.3029 -6.5740 -5.8100 0
M  V30 171 C -3.9660 -7.4312 -6.8729 0
M  V30 172 C -6.7753 -6.6033 -9.0747 0
M  V30 173 C -7.6410 -5.6016 -9.4613 0
M  V30 174 C -10.4584 -1.3856 -11.6730 0
M  V30 175 C -11.1520 -0.3221 -12.2147 0
M  V30 176 C -10.9049 0.9367 -11.6924 0
M  V30 177 O -11.4740 2.1087 -12.0916 0
M  V30 178 C -10.9256 3.0831 -11.3128 0
M  V30 179 C -11.1980 4.4398 -11.3723 0
M  V30 180 C -10.5218 5.2659 -10.4972 0
M  V30 181 C -7.7785 8.5348 -6.9891 0
M  V30 182 C -6.9313 9.3682 -6.2891 0
M  V30 183 C -4.4753 11.0519 -5.7271 0
M  V30 184 C -3.5391 11.9238 -5.1558 0
M  V30 185 C -2.8734 11.5852 -4.0068 0
M  V30 186 C -3.1557 10.3631 -3.3706 0
M  V30 187 H -1.7892 10.6125 -1.7208 0
M  V30 188 H -2.4348 8.4649 -0.6351 0
M  V30 189 H -5.1990 7.6357 -3.5897 0
M  V30 190 H -4.3451 7.2428 -5.8086 0
M  V30 191 H -5.8644 5.7451 -7.0419 0
M  V30 192 H -8.6082 2.9997 -8.8173 0
M  V30 193 H -8.5835 0.2020 -9.3100 0
M  V30 194 H -5.7883 -2.9155 -8.5658 0
M  V30 195 H -4.2352 -4.7076 -7.8950 0
M  V30 196 H -4.7585 -8.2994 -10.0531 0
M  V30 197 H -3.1060 -10.0462 -9.5945 0
M  V30 198 H -1.9296 -10.1274 -7.4291 0
M  V30 199 H -1.6232 -9.1958 -5.1302 0
M  V30 200 H -2.3171 -7.5422 -3.4007 0
M  V30 201 H -5.0857 -5.8296 -5.9422 0
M  V30 202 H -7.0517 -7.6367 -9.2223 0
M  V30 203 H -8.5841 -5.8459 -9.9257 0
M  V30 204 H -10.6228 -2.3799 -12.0602 0
M  V30 205 H -11.8594 -0.4588 -13.0171 0
M  V30 206 H -11.9111 4.8302 -12.0809 0
M  V30 207 H -10.7062 6.3293 -10.5204 0
M  V30 208 H -8.7296 8.8993 -7.3458 0
M  V30 209 H -7.2303 10.3851 -6.0828 0
M  V30 210 H -4.9593 11.3357 -6.6496 0
M  V30 211 H -3.3354 12.8655 -5.6427 0
M  V30 212 H -2.1376 12.2477 -3.5779 0
M  V30 END ATOM
M  V30 BEGIN BOND
M  V30 1 2 3 4
M  V30 2 1 4 5
M  V30 3 2 5 6
M  V30 4 1 6 7
M  V30 5 2 7 8
M  V30 6 1 7 9
M  V30 7 2 9 10
M  V30 8 1 10 11
M  V30 9 2 11 12
M  V30 10 1 12 13
M  V30 11 2 13 14
M  V30 12 1 5 15
M  V30 13 2 15 16
M  V30 14 1 16 17
M  V30 15 2 17 18
M  V30 16 1 18 19
M  V30 17 2 19 20
M  V30 18 1 8 3
M  V30 19 1 14 9
M  V30 20 1 20 15
M  V30 21 1 3 21
M  V30 22 1 4 22
M  V30 23 1 6 23
M  V30 24 1 8 24
M  V30 25 1 10 25
M  V30 26 1 11 26
M  V30 27 1 13 27
M  V30 28 1 14 28
M  V30 29 1 16 29
M  V30 30 1 17 30
M  V30 31 1 19 31
M  V30 32 1 20 32
M  V30 33 2 33 34
M  V30 34 1 34 35
M  V30 35 2 35 36
M  V30 36 1 36 37
M  V30 37 2 37 38
M  V30 38 1 37 39
M  V30 39 2 39 40
M  V30 40 1 40 41
M  V30 41 2 41 42
M  V30 42 1 42 43
M  V30 43 2 43 44
M  V30 44 1 35 45
M  V30 45 2 45 46
M  V30 46 1 46 47
M  V30 47 2 47 48
M  V30 48 1 48 49
M  V30 49 2 49 50
M  V30 50 1 38 33
M  V30 51 1 44 39
M  V30 52 1 50 45
M  V30 53 1 33 51
M  V30 54 1 34 52
M  V30 55 1 36 53
M  V30 56 1 38 54
M  V30 57 1 40 55
M  V30 58 1 41 56
M  V30 59 1 43 57
M  V30 60 1 44 58
M  V30 61 1 46 59
M  V30 62 1 47 60
M  V30 63 1 49 61
M  V30 64 1 50 62
M  V30 65 2 63 64
M  V30 66 1 64 65
M  V30 67 2 65 66
M  V30 68 1 66 67
M  V30 69 2 67 68
M  V30 70 1 68 69
M  V30 71 2 69 70
M  V30 72 1 70 71
M  V30 73 2 71 72
M  V30 74 1 72 73
M  V30 75 3 73 74
M  V30 76 1 74 75
M  V30 77 2 75 76
M  V30 78 1 76 77
M  V30 79 1 77 78
M  V30 80 2 78 79
M  V30 81 1 79 80
M  V30 82 1 80 81
M  V30 83 3 81 82
M  V30 84 1 82 83
M  V30 85 2 83 84
M  V30 86 1 84 85
M  V30 87 2 85 86
M  V30 88 1 86 87
M  V30 89 2 87 88
M  V30 90 1 88 89
M  V30 91 2 89 90
M  V30 92 1 90 91
M  V30 93 2 91 92
M  V30 94 1 92 93
M  V30 95 2 93 94
M  V30 96 1 94 95
M  V30 97 2 95 96
M  V30 98 1 86 97
M  V30 99 2 97 98
M  V30 100 2 80 99
M  V30 101 1 99 100
M  V30 102 2 100 101
M  V30 103 1 101 102
M  V30 104 1 102 103
M  V30 105 1 103 104
M  V30 106 2 104 105
M  V30 107 1 72 106
M  V30 108 2 106 107
M  V30 109 1 68 108
M  V30 110 2 108 109
M  V30 111 1 109 110
M  V30 112 2 110 111
M  V30 113 1 111 63
M  V30 114 1 111 67
M  V30 115 1 107 69
M  V30 116 1 105 75
M  V30 117 2 103 77
M  V30 118 1 101 78
M  V30 119 1 98 83
M  V30 120 1 96 87
M  V30 121 1 96 91
M  V30 122 1 63 112
M  V30 123 1 64 113
M  V30 124 1 66 114
M  V30 125 1 70 115
M  V30 126 1 71 116
M  V30 127 1 76 117
M  V30 128 1 79 118
M  V30 129 1 84 119
M  V30 130 1 85 120
M  V30 131 1 88 121
M  V30 132 1 89 122
M  V30 133 1 90 123
M  V30 134 1 92 124
M  V30 135 1 93 125
M  V30 136 1 95 126
M  V30 137 1 97 127
M  V30 138 1 98 128
M  V30 139 1 99 129
M  V30 140 1 100 130
M  V30 141 1 104 131
M  V30 142 1 105 132
M  V30 143 1 106 133
M  V30 144 1 107 134
M  V30 145 1 108 135
M  V30 146 1 109 136
M  V30 147 1 110 137
M  V30 148 2 138 139
M  V30 149 1 139 140
M  V30 150 2 140 141
M  V30 151 1 141 142
M  V30 152 2 142 143
M  V30 153 1 143 144
M  V30 154 2 144 145
M  V30 155 1 145 146
M  V30 156 2 146 147
M  V30 157 1 147 148
M  V30 158 3 148 149
M  V30 159 1 149 150
M  V30 160 2 150 151
M  V30 161 1 151 152
M  V30 162 1 152 153
M  V30 163 2 153 154
M  V30 164 1 154 155
M  V30 165 1 155 156
M  V30 166 3 156 157
M  V30 167 1 157 158
M  V30 168 2 158 159
M  V30 169 1 159 160
M  V30 170 2 160 161
M  V30 171 1 161 162
M  V30 172 2 162 163
M  V30 173 1 163 164
M  V30 174 2 164 165
M  V30 175 1 165 166
M  V30 176 2 166 167
M  V30 177 1 167 168
M  V30 178 2 168 169
M  V30 179 1 169 170
M  V30 180 2 170 171
M  V30 181 1 161 172
M  V30 182 2 172 173
M  V30 183 2 155 174
M  V30 184 1 174 175
M  V30 185 2 175 176
M  V30 186 1 176 177
M  V30 187 1 177 178
M  V30 188 1 178 179
M  V30 189 2 179 180
M  V30 190 1 147 181
M  V30 191 2 181 182
M  V30 192 1 143 183
M  V30 193 2 183 184
M  V30 194 1 184 185
M  V30 195 2 185 186
M  V30 196 1 186 138
M  V30 197 1 186 142
M  V30 198 1 182 144
M  V30 199 1 180 150
M  V30 200 2 178 152
M  V30 201 1 176 153
M  V30 202 1 173 158
M  V30 203 1 171 162
M  V30 204 1 171 166
M  V30 205 1 138 187
M  V30 206 1 139 188
M  V30 207 1 141 189
M  V30 208 1 145 190
M  V30 209 1 146 191
M  V30 210 1 151 192
M  V30 211 1 154 193
M  V30 212 1 159 194
M  V30 213 1 160 195
M  V30 214 1 163 196
M  V30 215 1 164 197
M  V30 216 1 165 198
M  V30 217 1 167 199
M  V30 218 1 168 200
M  V30 219 1 170 201
M  V30 220 1 172 202
M  V30 221 1 173 203
M  V30 222 1 174 204
M  V30 223 1 175 205
M  V30 224 1 179 206
M  V30 225 1 180 207
M  V30 226 1 181 208
M  V30 227 1 182 209
M  V30 228 1 183 210
M  V30 229 1 184 211
M  V30 230 1 185 212
M  V30 231 9 12 1
M  V30 232 9 42 1
M  V30 233 9 65 1
M  V30 234 9 140 1
M  V30 235 9 18 2
M  V30 236 9 48 2
M  V30 237 9 94 2
M  V30 238 9 169 2
M  V30 END BOND
M  V30 END CTAB
M  END

$$$$
