
     RDKit          3D

  0  0  0  0  0  0  0  0  0  0999 V3000
M  V30 BEGIN CTAB
M  V30 COUNTS 182 204 0 0 0
M  V30 BEGIN ATOM
M  V30 1 Pd 2.1048 6.2642 1.1654 0 CHG=2
M  V30 2 Pd 1.8135 -6.9716 2.1852 0 CHG=2
M  V30 3 C 2.8794 2.4898 -0.2652 0
M  V30 4 C 2.4612 3.8002 -0.2062 0
M  V30 5 N 3.1911 4.7594 0.3764 0
M  V30 6 C 4.4034 4.4501 0.8438 0
M  V30 7 C 4.9041 3.1633 0.8141 0
M  V30 8 C 4.1130 2.1279 0.2970 0
M  V30 9 C 4.4988 0.7410 0.3955 0
M  V30 10 C 5.7303 0.1880 0.6784 0
M  V30 11 C 5.6994 -1.2049 0.7860 0
M  V30 12 C 4.4437 -1.7400 0.5873 0
M  V30 13 S 3.2942 -0.4932 0.2347 0
M  V30 14 C 3.9970 -3.1072 0.7014 0
M  V30 15 C 2.7464 -3.4964 0.1979 0
M  V30 16 C 2.2715 -4.7627 0.4555 0
M  V30 17 N 2.9610 -5.6526 1.1799 0
M  V30 18 C 4.1875 -5.3290 1.5979 0
M  V30 19 C 4.7440 -4.0850 1.3731 0
M  V30 20 H 2.2464 1.7457 -0.7216 0
M  V30 21 H 1.5014 4.0979 -0.6260 0
M  V30 22 H 4.9823 5.2638 1.2708 0
M  V30 23 H 5.8773 2.9606 1.2288 0
M  V30 24 H 6.6313 0.7627 0.7909 0
M  V30 25 H 6.5745 -1.7946 0.9886 0
M  V30 26 H 2.1447 -2.8037 -0.3686 0
M  V30 27 H 1.2979 -5.0787 0.0836 0
M  V30 28 H 4.7319 -6.0923 2.1462 0
M  V30 29 H 5.7267 -3.8643 1.7547 0
M  V30 30 C 0.8809 2.7815 2.9731 0
M  V30 31 C 0.8496 4.0352 2.4049 0
M  V30 32 N 1.7734 4.9663 2.6729 0
M  V30 33 C 2.7109 4.6976 3.5854 0
M  V30 34 C 2.8075 3.4701 4.2110 0
M  V30 35 C 1.9081 2.4503 3.8699 0
M  V30 36 C 2.0582 1.0981 4.3506 0
M  V30 37 C 2.8216 0.6141 5.3925 0
M  V30 38 C 2.7906 -0.7789 5.5002 0
M  V30 39 C 2.0030 -1.3830 4.5424 0
M  V30 40 S 1.2710 -0.1977 3.5131 0
M  V30 41 C 1.7918 -2.7850 4.2745 0
M  V30 42 C 0.7477 -3.2044 3.4361 0
M  V30 43 C 0.6596 -4.5277 3.0664 0
M  V30 44 N 1.5431 -5.4462 3.4762 0
M  V30 45 C 2.4949 -5.0822 4.3396 0
M  V30 46 C 2.6472 -3.7788 4.7703 0
M  V30 47 H 0.1303 2.0544 2.7078 0
M  V30 48 H 0.0674 4.3065 1.6974 0
M  V30 49 H 3.4168 5.4929 3.8064 0
M  V30 50 H 3.5988 3.2945 4.9203 0
M  V30 51 H 3.3754 1.2399 6.0679 0
M  V30 52 H 3.3185 -1.3174 6.2657 0
M  V30 53 H 0.0283 -2.4944 3.0605 0
M  V30 54 H -0.1364 -4.8698 2.4066 0
M  V30 55 H 3.1663 -5.8644 4.6818 0
M  V30 56 H 3.4481 -3.5314 5.4466 0
M  V30 57 C 0.2829 -10.0344 4.6459 0
M  V30 58 C -1.1191 -9.9404 4.4914 0
M  V30 59 C -1.6270 -8.8587 3.7133 0
M  V30 60 C -3.0349 -8.6698 3.5987 0
M  V30 61 C -3.8700 -9.6140 4.1547 0
M  V30 62 C -3.3642 -10.7072 4.8714 0
M  V30 63 C -2.0159 -10.8582 5.0674 0
M  V30 64 C -3.5848 -7.4575 2.9765 0
M  V30 65 C -3.0964 -6.2043 3.3592 0
M  V30 66 C -3.6259 -5.0510 2.8260 0
M  V30 67 C -4.6634 -5.1174 1.8872 0
M  V30 68 C -5.1665 -3.9088 1.3728 0
M  V30 69 C -5.5423 -2.8220 0.9905 0
M  V30 70 C -5.8518 -1.5130 0.6407 0
M  V30 71 C -6.8784 -1.0018 -0.1189 0
M  V30 72 C -6.8476 0.3947 -0.2260 0
M  V30 73 C -5.7971 0.9704 0.4502 0
M  V30 74 C -5.4293 2.3025 0.5972 0
M  V30 75 C -5.0051 3.4175 0.8106 0
M  V30 76 C -4.4481 4.6673 1.1362 0
M  V30 77 C -3.4104 4.6995 2.0765 0
M  V30 78 C -2.8293 5.8965 2.4293 0
M  V30 79 C -3.2648 7.0968 1.8594 0
M  V30 80 C -2.6607 8.3648 2.2914 0
M  V30 81 C -1.2456 8.5082 2.3795 0
M  V30 82 C -0.6886 9.6726 2.9854 0
M  V30 83 C 0.7168 9.7285 3.1275 0
M  V30 84 C 1.4920 8.7107 2.6480 0
M  V30 85 N 0.9572 7.6608 1.9846 0
M  V30 86 C -0.3483 7.5632 1.8508 0
M  V30 87 C -1.5428 10.7051 3.4129 0
M  V30 88 C -2.8972 10.5842 3.2387 0
M  V30 89 C -3.4523 9.4176 2.6953 0
M  V30 90 C -4.3102 7.0627 0.9360 0
M  V30 91 C -4.8925 5.8652 0.5703 0
M  V30 92 S -4.8249 -0.2400 1.2409 0
M  V30 93 C -5.1608 -6.3672 1.5084 0
M  V30 94 C -4.6300 -7.5191 2.0544 0
M  V30 95 C -0.6912 -8.0446 3.0507 0
M  V30 96 N 0.6092 -8.1767 3.2031 0
M  V30 97 C 1.1001 -9.1356 4.0205 0
M  V30 98 H 0.6949 -10.8209 5.2578 0
M  V30 99 H -4.9395 -9.4922 4.0718 0
M  V30 100 H -4.0557 -11.4179 5.2980 0
M  V30 101 H -1.6310 -11.6751 5.6578 0
M  V30 102 H -2.3276 -6.1421 4.1152 0
M  V30 103 H -3.2623 -4.0842 3.1372 0
M  V30 104 H -7.6297 -1.6207 -0.5774 0
M  V30 105 H -7.5726 0.9689 -0.7760 0
M  V30 106 H -3.0875 3.7765 2.5320 0
M  V30 107 H -2.0607 5.9167 3.1878 0
M  V30 108 H 1.1646 10.5803 3.6138 0
M  V30 109 H 2.5720 8.7107 2.7651 0
M  V30 110 H -0.7279 6.7172 1.2803 0
M  V30 111 H -1.1208 11.5849 3.8732 0
M  V30 112 H -3.5557 11.3807 3.5506 0
M  V30 113 H -4.5264 9.3309 2.6291 0
M  V30 114 H -4.6570 7.9832 0.4904 0
M  V30 115 H -5.6980 5.8503 -0.1486 0
M  V30 116 H -5.9666 -6.4270 0.7923 0
M  V30 117 H -5.0174 -8.4808 1.7525 0
M  V30 118 H -1.0354 -7.2797 2.3567 0
M  V30 119 H 2.1793 -9.1642 4.1406 0
M  V30 120 C 3.0722 -10.4364 0.1384 0
M  V30 121 C 2.3121 -10.4352 -1.0535 0
M  V30 122 C 1.4761 -9.3073 -1.3028 0
M  V30 123 C 0.7565 -9.2177 -2.5296 0
M  V30 124 C 0.8024 -10.2881 -3.3958 0
M  V30 125 C 1.5818 -11.4198 -3.1199 0
M  V30 126 C 2.3501 -11.4870 -1.9866 0
M  V30 127 C 0.0508 -7.9836 -2.9015 0
M  V30 128 C -1.2440 -8.0104 -3.4205 0
M  V30 129 C -1.8780 -6.8443 -3.8014 0
M  V30 130 C -1.2195 -5.6173 -3.6843 0
M  V30 131 C -1.8081 -4.3970 -4.0623 0
M  V30 132 C -2.2315 -3.3038 -4.3693 0
M  V30 133 C -2.5781 -1.9900 -4.6610 0
M  V30 134 C -3.6753 -1.4694 -5.3071 0
M  V30 135 C -3.6455 -0.0729 -5.4146 0
M  V30 136 C -2.5251 0.4934 -4.8522 0
M  V30 137 C -2.1222 1.8205 -4.7635 0
M  V30 138 C -1.6515 2.9287 -4.6256 0
M  V30 139 C -1.0097 4.1659 -4.4366 0
M  V30 140 C -1.6160 5.3881 -4.7391 0
M  V30 141 C -0.9311 6.5702 -4.5384 0
M  V30 142 C 0.3640 6.5669 -4.0195 0
M  V30 143 C 1.1234 7.8118 -3.8378 0
M  V30 144 C 1.8521 8.0553 -2.6376 0
M  V30 145 C 2.7363 9.1714 -2.5606 0
M  V30 146 C 3.5013 9.3208 -1.3813 0
M  V30 147 C 3.3428 8.4399 -0.3490 0
M  V30 148 N 2.4269 7.4462 -0.3960 0
M  V30 149 C 1.7108 7.2626 -1.4847 0
M  V30 150 C 2.8144 10.0672 -3.6422 0
M  V30 151 C 2.0385 9.8619 -4.7536 0
M  V30 152 C 1.2104 8.7357 -4.8561 0
M  V30 153 C 0.9697 5.3411 -3.7265 0
M  V30 154 C 0.2969 4.1579 -3.9317 0
M  V30 155 S -1.4805 -0.7265 -4.1769 0
M  V30 156 C 0.0869 -5.5885 -3.1799 0
M  V30 157 C 0.7088 -6.7544 -2.7944 0
M  V30 158 C 1.3707 -8.3437 -0.2840 0
M  V30 159 N 2.0804 -8.3902 0.8232 0
M  V30 160 C 2.9533 -9.4032 1.0245 0
M  V30 161 H 3.7402 -11.2591 0.3376 0
M  V30 162 H 0.2578 -10.2420 -4.3269 0
M  V30 163 H 1.5953 -12.2316 -3.8313 0
M  V30 164 H 2.9845 -12.3392 -1.7983 0
M  V30 165 H -1.7620 -8.9537 -3.5103 0
M  V30 166 H -2.8818 -6.8766 -4.1978 0
M  V30 167 H -4.4707 -2.0825 -5.6935 0
M  V30 168 H -4.4154 0.5071 -5.8928 0
M  V30 169 H -2.6196 5.4028 -5.1371 0
M  V30 170 H -1.4090 7.5103 -4.7708 0
M  V30 171 H 4.2045 10.1350 -1.3079 0
M  V30 172 H 3.9343 8.5112 0.5594 0
M  V30 173 H 0.9640 6.4708 -1.4609 0
M  V30 174 H 3.4852 10.9102 -3.5841 0
M  V30 175 H 2.0830 10.5553 -5.5798 0
M  V30 176 H 0.6598 8.5725 -5.7703 0
M  V30 177 H 1.9924 5.3235 -3.3794 0
M  V30 178 H 0.7725 3.2121 -3.7245 0
M  V30 179 H 0.6028 -4.6433 -3.1159 0
M  V30 180 H 1.7317 -6.7279 -2.4487 0
M  V30 181 H 0.6583 -7.5266 -0.3840 0
M  V30 182 H 3.5429 -9.3609 1.9359 0
M  V30 END ATOM
M  V30 BEGIN BOND
M  V30 1 2 3 4
M  V30 2 1 4 5
M  V30 3 2 5 6
M  V30 4 1 6 7
M  V30 5 2 7 8
M  V30 6 1 8 9
M  V30 7 2 9 10
M  V30 8 1 10 11
M  V30 9 2 11 12
M  V30 10 1 12 13
M  V30 11 1 12 14
M  V30 12 2 14 15
M  V30 13 1 15 16
M  V30 14 2 16 17
M  V30 15 1 17 18
M  V30 16 2 18 19
M  V30 17 1 8 3
M  V30 18 1 13 9
M  V30 19 1 19 14
M  V30 20 1 3 20
M  V30 21 1 4 21
M  V30 22 1 6 22
M  V30 23 1 7 23
M  V30 24 1 10 24
M  V30 25 1 11 25
M  V30 26 1 15 26
M  V30 27 1 16 27
M  V30 28 1 18 28
M  V30 29 1 19 29
M  V30 30 2 30 31
M  V30 31 1 31 32
M  V30 32 2 32 33
M  V30 33 1 33 34
M  V30 34 2 34 35
M  V30 35 1 35 36
M  V30 36 2 36 37
M  V30 37 1 37 38
M  V30 38 2 38 39
M  V30 39 1 39 40
M  V30 40 1 39 41
M  V30 41 2 41 42
M  V30 42 1 42 43
M  V30 43 2 43 44
M  V30 44 1 44 45
M  V30 45 2 45 46
M  V30 46 1 35 30
M  V30 47 1 40 36
M  V30 48 1 46 41
M  V30 49 1 30 47
M  V30 50 1 31 48
M  V30 51 1 33 49
M  V30 52 1 34 50
M  V30 53 1 37 51
M  V30 54 1 38 52
M  V30 55 1 42 53
M  V30 56 1 43 54
M  V30 57 1 45 55
M  V30 58 1 46 56
M  V30 59 2 57 58
M  V30 60 1 58 59
M  V30 61 1 59 60
M  V30 62 2 60 61
M  V30 63 1 61 62
M  V30 64 2 62 63
M  V30 65 1 60 64
M  V30 66 2 64 65
M  V30 67 1 65 66
M  V30 68 2 66 67
M  V30 69 1 67 68
M  V30 70 3 68 69
M  V30 71 1 69 70
M  V30 72 2 70 71
M  V30 73 1 71 72
M  V30 74 2 72 73
M  V30 75 1 73 74
M  V30 76 3 74 75
M  V30 77 1 75 76
M  V30 78 2 76 77
M  V30 79 1 77 78
M  V30 80 2 78 79
M  V30 81 1 79 80
M  V30 82 1 80 81
M  V30 83 1 81 82
M  V30 84 2 82 83
M  V30 85 1 83 84
M  V30 86 2 84 85
M  V30 87 1 85 86
M  V30 88 1 82 87
M  V30 89 2 87 88
M  V30 90 1 88 89
M  V30 91 1 79 90
M  V30 92 2 90 91
M  V30 93 1 73 92
M  V30 94 1 67 93
M  V30 95 2 93 94
M  V30 96 2 59 95
M  V30 97 1 95 96
M  V30 98 2 96 97
M  V30 99 1 97 57
M  V30 100 1 63 58
M  V30 101 1 94 64
M  V30 102 1 92 70
M  V30 103 1 91 76
M  V30 104 2 89 80
M  V30 105 2 86 81
M  V30 106 1 57 98
M  V30 107 1 61 99
M  V30 108 1 62 100
M  V30 109 1 63 101
M  V30 110 1 65 102
M  V30 111 1 66 103
M  V30 112 1 71 104
M  V30 113 1 72 105
M  V30 114 1 77 106
M  V30 115 1 78 107
M  V30 116 1 83 108
M  V30 117 1 84 109
M  V30 118 1 86 110
M  V30 119 1 87 111
M  V30 120 1 88 112
M  V30 121 1 89 113
M  V30 122 1 90 114
M  V30 123 1 91 115
M  V30 124 1 93 116
M  V30 125 1 94 117
M  V30 126 1 95 118
M  V30 127 1 97 119
M  V30 128 2 120 121
M  V30 129 1 121 122
M  V30 130 1 122 123
M  V30 131 2 123 124
M  V30 132 1 124 125
M  V30 133 2 125 126
M  V30 134 1 123 127
M  V30 135 2 127 128
M  V30 136 1 128 129
M  V30 137 2 129 130
M  V30 138 1 130 131
M  V30 139 3 131 132
M  V30 140 1 132 133
M  V30 141 2 133 134
M  V30 142 1 134 135
M  V30 143 2 135 136
M  V30 144 1 136 137
M  V30 145 3 137 138
M  V30 146 1 138 139
M  V30 147 2 139 140
M  V30 148 1 140 141
M  V30 149 2 141 142
M  V30 150 1 142 143
M  V30 151 1 143 144
M  V30 152 1 144 145
M  V30 153 2 145 146
M  V30 154 1 146 147
M  V30 155 2 147 148
M  V30 156 1 148 149
M  V30 157 1 145 150
M  V30 158 2 150 151
M  V30 159 1 151 152
M  V30 160 1 142 153
M  V30 161 2 153 154
M  V30 162 1 136 155
M  V30 163 1 130 156
M  V30 164 2 156 157
M  V30 165 2 122 158
M  V30 166 1 158 159
M  V30 167 2 159 160
M  V30 168 1 160 120
M  V30 169 1 126 121
M  V30 170 1 157 127
M  V30 171 1 155 133
M  V30 172 1 154 139
M  V30 173 2 152 143
M  V30 174 2 149 144
M  V30 175 1 120 161
M  V30 176 1 124 162
M  V30 177 1 125 163
M  V30 178 1 126 164
M  V30 179 1 128 165
M  V30 180 1 129 166
M  V30 181 1 134 167
M  V30 182 1 135 168
M  V30 183 1 140 169
M  V30 184 1 141 170
M  V30 185 1 146 171
M  V30 186 1 147 172
M  V30 187 1 149 173
M  V30 188 1 150 174
M  V30 189 1 151 175
M  V30 190 1 152 176
M  V30 191 1 153 177
M  V30 192 1 154 178
M  V30 193 1 156 179
M  V30 194 1 157 180
M  V30 195 1 158 181
M  V30 196 1 160 182
M  V30 197 9 5 1
M  V30 198 9 32 1
M  V30 199 9 85 1
M  V30 200 9 148 1
M  V30 201 9 17 2
M  V30 202 9 44 2
M  V30 203 9 96 2
M  V30 204 9 159 2
M  V30 END BOND
M  V30 END CTAB
M  END

$$$$
