
     RDKit          3D

  0  0  0  0  0  0  0  0  0  0999 V3000
M  V30 BEGIN CTAB
M  V30 COUNTS 192 214 0 0 0
M  V30 BEGIN ATOM
M  V30 1 Pd -4.4356 6.6400 0.1865 0 CHG=2
M  V30 2 Pd -3.1472 -5.3305 0.0565 0 CHG=2
M  V30 3 C 1.9714 1.2897 -1.2036 0
M  V30 4 C 1.4235 0.0198 -1.1412 0
M  V30 5 C 0.0435 -0.1388 -1.0214 0
M  V30 6 C -0.7670 0.9913 -0.9657 0
M  V30 7 C -0.2168 2.2694 -0.9963 0
M  V30 8 C 1.1650 2.4117 -1.1164 0
M  V30 9 C -1.1096 3.4269 -0.8621 0
M  V30 10 C -2.3592 3.4441 -1.4912 0
M  V30 11 C -3.2291 4.4863 -1.2473 0
M  V30 12 N -2.9212 5.4908 -0.4213 0
M  V30 13 C -1.7140 5.5208 0.1449 0
M  V30 14 C -0.7816 4.5193 -0.0558 0
M  V30 15 C -0.5813 -1.4627 -0.9134 0
M  V30 16 C -1.7989 -1.7335 -1.5471 0
M  V30 17 C -2.4259 -2.9422 -1.3273 0
M  V30 18 N -1.9099 -3.8744 -0.5205 0
M  V30 19 C -0.7238 -3.6575 0.0492 0
M  V30 20 C -0.0268 -2.4762 -0.1282 0
M  V30 21 H 3.0388 1.4062 -1.3120 0
M  V30 22 H 2.0660 -0.8442 -1.2113 0
M  V30 23 H -1.8316 0.8749 -0.8340 0
M  V30 24 H 1.6080 3.3943 -1.1674 0
M  V30 25 H -2.6437 2.6527 -2.1649 0
M  V30 26 H -4.2119 4.5211 -1.7172 0
M  V30 27 H -1.4964 6.3676 0.7904 0
M  V30 28 H 0.1735 4.5669 0.4419 0
M  V30 29 H -2.2465 -1.0074 -2.2056 0
M  V30 30 H -3.3789 -3.1766 -1.8015 0
M  V30 31 H -0.3297 -4.4513 0.6782 0
M  V30 32 H 0.9170 -2.3289 0.3716 0
M  V30 33 C -4.5872 0.5050 6.0122 0
M  V30 34 C -4.4467 -0.6822 5.3138 0
M  V30 35 C -4.4523 -0.6756 3.9196 0
M  V30 36 C -4.6001 0.5343 3.2477 0
M  V30 37 C -4.7108 1.7328 3.9463 0
M  V30 38 C -4.7033 1.7100 5.3403 0
M  V30 39 C -4.7937 2.9871 3.1883 0
M  V30 40 C -5.5444 3.0629 2.0100 0
M  V30 41 C -5.5037 4.2133 1.2503 0
M  V30 42 N -4.7642 5.2701 1.6000 0
M  V30 43 C -4.0855 5.2383 2.7477 0
M  V30 44 C -4.0813 4.1264 3.5700 0
M  V30 45 C -4.2686 -1.9020 3.1341 0
M  V30 46 C -4.9877 -2.1090 1.9518 0
M  V30 47 C -4.7049 -3.2075 1.1672 0
M  V30 48 N -3.7580 -4.0911 1.4963 0
M  V30 49 C -3.1000 -3.9417 2.6468 0
M  V30 50 C -3.3305 -2.8726 3.4933 0
M  V30 51 H -4.5974 0.4919 7.0912 0
M  V30 52 H -4.3585 -1.6127 5.8529 0
M  V30 53 H -4.5656 0.5500 2.1693 0
M  V30 54 H -4.8131 2.6260 5.8999 0
M  V30 55 H -6.1542 2.2321 1.6952 0
M  V30 56 H -6.0713 4.2966 0.3238 0
M  V30 57 H -3.5168 6.1279 3.0054 0
M  V30 58 H -3.4975 4.1306 4.4763 0
M  V30 59 H -5.7601 -1.4196 1.6531 0
M  V30 60 H -5.2430 -3.3885 0.2370 0
M  V30 61 H -2.3556 -4.6963 2.8872 0
M  V30 62 H -2.7579 -2.7730 4.4012 0
M  V30 63 C -6.8891 9.6140 1.8900 0
M  V30 64 C -5.8579 8.7580 1.6234 0
M  V30 65 N -5.9954 7.7274 0.7601 0
M  V30 66 C -7.1553 7.5013 0.1815 0
M  V30 67 C -8.2954 8.2900 0.4144 0
M  V30 68 C -9.5502 8.0374 -0.2103 0
M  V30 69 C -9.7799 6.8254 -1.0124 0
M  V30 70 C -10.3757 6.9089 -2.2709 0
M  V30 71 C -10.6545 5.7687 -2.9970 0
M  V30 72 C -10.3492 4.5107 -2.4735 0
M  V30 73 C -10.6869 3.3253 -3.1590 0
M  V30 74 C -11.0049 2.2807 -3.6756 0
M  V30 75 C -11.4196 1.0430 -4.2215 0
M  V30 76 N -10.7830 -0.0416 -3.7927 0
M  V30 77 C -11.1725 -1.2276 -4.2478 0
M  V30 78 C -10.5002 -2.3598 -3.7297 0
M  V30 79 C -9.9641 -3.3238 -3.2372 0
M  V30 80 C -9.3802 -4.4263 -2.5794 0
M  V30 81 C -9.4128 -5.7074 -3.1340 0
M  V30 82 C -8.8985 -6.7801 -2.4342 0
M  V30 83 C -8.3326 -6.6030 -1.1716 0
M  V30 84 C -7.8536 -7.7585 -0.3966 0
M  V30 85 C -8.6641 -8.8596 -0.2284 0
M  V30 86 C -8.2755 -9.9411 0.5744 0
M  V30 87 C -7.0710 -9.9354 1.2278 0
M  V30 88 C -6.1917 -8.8496 1.0626 0
M  V30 89 C -4.9222 -8.7919 1.6814 0
M  V30 90 C -4.0931 -7.7329 1.4400 0
M  V30 91 N -4.4430 -6.7340 0.5998 0
M  V30 92 C -5.6242 -6.7423 0.0202 0
M  V30 93 C -6.5740 -7.7574 0.2288 0
M  V30 94 C -8.2914 -5.3177 -0.6254 0
M  V30 95 C -8.8062 -4.2424 -1.3178 0
M  V30 96 C -12.2244 -1.3839 -5.1592 0
M  V30 97 C -12.8843 -0.2493 -5.5985 0
M  V30 98 C -12.4827 0.9904 -5.1317 0
M  V30 99 C -9.7452 4.4222 -1.2156 0
M  V30 100 C -9.4667 5.5652 -0.4969 0
M  V30 101 C -10.5724 8.9402 -0.0159 0
M  V30 102 C -10.4146 10.0603 0.8119 0
M  V30 103 C -9.2321 10.2921 1.4645 0
M  V30 104 C -8.1459 9.4187 1.2734 0
M  V30 105 H -6.7541 10.4485 2.5596 0
M  V30 106 H -4.8798 8.8773 2.0810 0
M  V30 107 H -7.2063 6.6716 -0.5224 0
M  V30 108 H -10.6177 7.8779 -2.6814 0
M  V30 109 H -11.1264 5.8429 -3.9649 0
M  V30 110 H -9.8596 -5.8562 -4.1054 0
M  V30 111 H -8.9308 -7.7681 -2.8686 0
M  V30 112 H -9.6356 -8.8807 -0.6989 0
M  V30 113 H -8.9488 -10.7772 0.6877 0
M  V30 114 H -6.7834 -10.7570 1.8654 0
M  V30 115 H -4.6158 -9.5950 2.3325 0
M  V30 116 H -3.1120 -7.6555 1.9001 0
M  V30 117 H -5.8475 -5.9255 -0.6650 0
M  V30 118 H -7.9017 -5.1771 0.3719 0
M  V30 119 H -8.8002 -3.2538 -0.8868 0
M  V30 120 H -12.5123 -2.3672 -5.4984 0
M  V30 121 H -13.7057 -0.3306 -6.2970 0
M  V30 122 H -12.9761 1.8962 -5.4491 0
M  V30 123 H -9.5289 3.4473 -0.8086 0
M  V30 124 H -9.0525 5.4864 0.4974 0
M  V30 125 H -11.5293 8.7682 -0.4856 0
M  V30 126 H -11.2474 10.7341 0.9451 0
M  V30 127 H -9.1196 11.1409 2.1210 0
M  V30 128 C -3.3181 10.0388 -2.0522 0
M  V30 129 C -3.3796 9.0557 -1.1049 0
M  V30 130 N -4.1385 7.9508 -1.2757 0
M  V30 131 C -4.8124 7.7800 -2.3928 0
M  V30 132 C -4.7906 8.7047 -3.4510 0
M  V30 133 C -5.5218 8.5117 -4.6577 0
M  V30 134 C -6.2159 7.2435 -4.9320 0
M  V30 135 C -5.5345 6.0285 -4.8234 0
M  V30 136 C -6.1646 4.8399 -5.1237 0
M  V30 137 C -7.4989 4.8366 -5.5417 0
M  V30 138 C -8.1084 3.6133 -5.8889 0
M  V30 139 C -8.5659 2.5433 -6.2127 0
M  V30 140 C -9.0637 1.2931 -6.6492 0
M  V30 141 N -8.4008 0.2118 -6.2537 0
M  V30 142 C -8.8178 -0.9767 -6.6765 0
M  V30 143 C -8.0621 -2.1009 -6.2686 0
M  V30 144 C -7.3846 -3.0549 -5.9690 0
M  V30 145 C -6.5249 -4.1249 -5.6457 0
M  V30 146 C -5.2207 -3.8483 -5.2242 0
M  V30 147 C -4.3484 -4.8786 -4.9456 0
M  V30 148 C -4.7518 -6.2096 -5.0800 0
M  V30 149 C -3.8006 -7.3032 -4.8259 0
M  V30 150 C -3.5974 -8.2846 -5.7702 0
M  V30 151 C -2.6395 -9.2916 -5.5851 0
M  V30 152 C -1.8671 -9.3302 -4.4538 0
M  V30 153 C -2.0598 -8.3708 -3.4428 0
M  V30 154 C -1.3237 -8.3685 -2.2361 0
M  V30 155 C -1.5965 -7.4392 -1.2719 0
M  V30 156 N -2.5749 -6.5201 -1.4274 0
M  V30 157 C -3.2682 -6.4778 -2.5447 0
M  V30 158 C -3.0466 -7.3566 -3.6189 0
M  V30 159 C -6.0518 -6.4808 -5.5055 0
M  V30 160 C -6.9319 -5.4538 -5.7808 0
M  V30 161 C -9.9232 -1.1389 -7.5210 0
M  V30 162 C -10.6059 -0.0069 -7.9310 0
M  V30 163 C -10.1807 1.2348 -7.4920 0
M  V30 164 C -8.1839 6.0486 -5.6497 0
M  V30 165 C -7.5454 7.2358 -5.3528 0
M  V30 166 C -5.5398 9.5306 -5.5839 0
M  V30 167 C -4.8203 10.7169 -5.3814 0
M  V30 168 C -4.0680 10.9005 -4.2507 0
M  V30 169 C -4.0442 9.9042 -3.2576 0
M  V30 170 H -2.7293 10.9271 -1.8875 0
M  V30 171 H -2.8338 9.1265 -0.1684 0
M  V30 172 H -5.4252 6.8826 -2.4712 0
M  V30 173 H -4.4898 6.0293 -4.5496 0
M  V30 174 H -5.6341 3.9028 -5.0643 0
M  V30 175 H -4.9052 -2.8202 -5.1446 0
M  V30 176 H -3.3279 -4.6593 -4.6684 0
M  V30 177 H -4.1651 -8.2645 -6.6884 0
M  V30 178 H -2.5043 -10.0331 -6.3580 0
M  V30 179 H -1.1143 -10.0922 -4.3238 0
M  V30 180 H -0.5578 -9.1122 -2.0840 0
M  V30 181 H -1.0497 -7.4083 -0.3338 0
M  V30 182 H -4.0595 -5.7319 -2.6104 0
M  V30 183 H -6.3732 -7.5061 -5.6125 0
M  V30 184 H -7.9344 -5.6726 -6.1156 0
M  V30 185 H -10.2239 -2.1236 -7.8447 0
M  V30 186 H -11.4609 -0.0916 -8.5877 0
M  V30 187 H -10.6865 2.1396 -7.7923 0
M  V30 188 H -9.2112 6.0522 -5.9809 0
M  V30 189 H -8.0811 8.1693 -5.4395 0
M  V30 190 H -6.0946 9.4052 -6.5015 0
M  V30 191 H -4.8520 11.4839 -6.1404 0
M  V30 192 H -3.4962 11.8043 -4.1076 0
M  V30 END ATOM
M  V30 BEGIN BOND
M  V30 1 2 3 4
M  V30 2 1 4 5
M  V30 3 2 5 6
M  V30 4 1 6 7
M  V30 5 2 7 8
M  V30 6 1 7 9
M  V30 7 2 9 10
M  V30 8 1 10 11
M  V30 9 2 11 12
M  V30 10 1 12 13
M  V30 11 2 13 14
M  V30 12 1 5 15
M  V30 13 2 15 16
M  V30 14 1 16 17
M  V30 15 2 17 18
M  V30 16 1 18 19
M  V30 17 2 19 20
M  V30 18 1 8 3
M  V30 19 1 14 9
M  V30 20 1 20 15
M  V30 21 1 3 21
M  V30 22 1 4 22
M  V30 23 1 6 23
M  V30 24 1 8 24
M  V30 25 1 10 25
M  V30 26 1 11 26
M  V30 27 1 13 27
M  V30 28 1 14 28
M  V30 29 1 16 29
M  V30 30 1 17 30
M  V30 31 1 19 31
M  V30 32 1 20 32
M  V30 33 2 33 34
M  V30 34 1 34 35
M  V30 35 2 35 36
M  V30 36 1 36 37
M  V30 37 2 37 38
M  V30 38 1 37 39
M  V30 39 2 39 40
M  V30 40 1 40 41
M  V30 41 2 41 42
M  V30 42 1 42 43
M  V30 43 2 43 44
M  V30 44 1 35 45
M  V30 45 2 45 46
M  V30 46 1 46 47
M  V30 47 2 47 48
M  V30 48 1 48 49
M  V30 49 2 49 50
M  V30 50 1 38 33
M  V30 51 1 44 39
M  V30 52 1 50 45
M  V30 53 1 33 51
M  V30 54 1 34 52
M  V30 55 1 36 53
M  V30 56 1 38 54
M  V30 57 1 40 55
M  V30 58 1 41 56
M  V30 59 1 43 57
M  V30 60 1 44 58
M  V30 61 1 46 59
M  V30 62 1 47 60
M  V30 63 1 49 61
M  V30 64 1 50 62
M  V30 65 2 63 64
M  V30 66 1 64 65
M  V30 67 2 65 66
M  V30 68 1 66 67
M  V30 69 2 67 68
M  V30 70 1 68 69
M  V30 71 2 69 70
M  V30 72 1 70 71
M  V30 73 2 71 72
M  V30 74 1 72 73
M  V30 75 3 73 74
M  V30 76 1 74 75
M  V30 77 2 75 76
M  V30 78 1 76 77
M  V30 79 1 77 78
M  V30 80 3 78 79
M  V30 81 1 79 80
M  V30 82 2 80 81
M  V30 83 1 81 82
M  V30 84 2 82 83
M  V30 85 1 83 84
M  V30 86 2 84 85
M  V30 87 1 85 86
M  V30 88 2 86 87
M  V30 89 1 87 88
M  V30 90 2 88 89
M  V30 91 1 89 90
M  V30 92 2 90 91
M  V30 93 1 91 92
M  V30 94 2 92 93
M  V30 95 1 83 94
M  V30 96 2 94 95
M  V30 97 2 77 96
M  V30 98 1 96 97
M  V30 99 2 97 98
M  V30 100 1 72 99
M  V30 101 2 99 100
M  V30 102 1 68 101
M  V30 103 2 101 102
M  V30 104 1 102 103
M  V30 105 2 103 104
M  V30 106 1 104 63
M  V30 107 1 104 67
M  V30 108 1 100 69
M  V30 109 1 98 75
M  V30 110 1 95 80
M  V30 111 1 93 84
M  V30 112 1 93 88
M  V30 113 1 63 105
M  V30 114 1 64 106
M  V30 115 1 66 107
M  V30 116 1 70 108
M  V30 117 1 71 109
M  V30 118 1 81 110
M  V30 119 1 82 111
M  V30 120 1 85 112
M  V30 121 1 86 113
M  V30 122 1 87 114
M  V30 123 1 89 115
M  V30 124 1 90 116
M  V30 125 1 92 117
M  V30 126 1 94 118
M  V30 127 1 95 119
M  V30 128 1 96 120
M  V30 129 1 97 121
M  V30 130 1 98 122
M  V30 131 1 99 123
M  V30 132 1 100 124
M  V30 133 1 101 125
M  V30 134 1 102 126
M  V30 135 1 103 127
M  V30 136 2 128 129
M  V30 137 1 129 130
M  V30 138 2 130 131
M  V30 139 1 131 132
M  V30 140 2 132 133
M  V30 141 1 133 134
M  V30 142 2 134 135
M  V30 143 1 135 136
M  V30 144 2 136 137
M  V30 145 1 137 138
M  V30 146 3 138 139
M  V30 147 1 139 140
M  V30 148 2 140 141
M  V30 149 1 141 142
M  V30 150 1 142 143
M  V30 151 3 143 144
M  V30 152 1 144 145
M  V30 153 2 145 146
M  V30 154 1 146 147
M  V30 155 2 147 148
M  V30 156 1 148 149
M  V30 157 2 149 150
M  V30 158 1 150 151
M  V30 159 2 151 152
M  V30 160 1 152 153
M  V30 161 2 153 154
M  V30 162 1 154 155
M  V30 163 2 155 156
M  V30 164 1 156 157
M  V30 165 2 157 158
M  V30 166 1 148 159
M  V30 167 2 159 160
M  V30 168 2 142 161
M  V30 169 1 161 162
M  V30 170 2 162 163
M  V30 171 1 137 164
M  V30 172 2 164 165
M  V30 173 1 133 166
M  V30 174 2 166 167
M  V30 175 1 167 168
M  V30 176 2 168 169
M  V30 177 1 169 128
M  V30 178 1 169 132
M  V30 179 1 165 134
M  V30 180 1 163 140
M  V30 181 1 160 145
M  V30 182 1 158 149
M  V30 183 1 158 153
M  V30 184 1 128 170
M  V30 185 1 129 171
M  V30 186 1 131 172
M  V30 187 1 135 173
M  V30 188 1 136 174
M  V30 189 1 146 175
M  V30 190 1 147 176
M  V30 191 1 150 177
M  V30 192 1 151 178
M  V30 193 1 152 179
M  V30 194 1 154 180
M  V30 195 1 155 181
M  V30 196 1 157 182
M  V30 197 1 159 183
M  V30 198 1 160 184
M  V30 199 1 161 185
M  V30 200 1 162 186
M  V30 201 1 163 187
M  V30 202 1 164 188
M  V30 203 1 165 189
M  V30 204 1 166 190
M  V30 205 1 167 191
M  V30 206 1 168 192
M  V30 207 9 12 1
M  V30 208 9 42 1
M  V30 209 9 65 1
M  V30 210 9 130 1
M  V30 211 9 18 2
M  V30 212 9 48 2
M  V30 213 9 91 2
M  V30 214 9 156 2
M  V30 END BOND
M  V30 END CTAB
M  END

$$$$
