
     RDKit          3D

  0  0  0  0  0  0  0  0  0  0999 V3000
M  V30 BEGIN CTAB
M  V30 COUNTS 254 284 0 0 0
M  V30 BEGIN ATOM
M  V30 1 Pd -0.8728 9.1823 -1.8680 0 CHG=2
M  V30 2 Pd -1.1550 -11.3934 -1.7074 0 CHG=2
M  V30 3 C -0.5961 -11.8974 -5.8191 0
M  V30 4 C -0.1361 -10.6568 -6.3153 0
M  V30 5 C 0.0326 -9.5880 -5.3848 0
M  V30 6 C 0.5232 -8.3330 -5.8450 0
M  V30 7 C 0.8286 -8.1948 -7.1818 0
M  V30 8 C 0.6481 -9.2440 -8.0923 0
M  V30 9 C 0.1711 -10.4578 -7.6735 0
M  V30 10 C 0.7423 -7.1932 -4.9387 0
M  V30 11 C -0.2640 -6.7043 -4.1058 0
M  V30 12 C -0.0336 -5.6133 -3.2927 0
M  V30 13 C 1.2135 -4.9853 -3.2934 0
M  V30 14 C 1.4602 -3.8839 -2.4462 0
M  V30 15 C 1.6990 -2.9716 -1.6878 0
M  V30 16 C 1.9776 -1.9396 -0.7945 0
M  V30 17 C 2.7601 -2.0123 0.3335 0
M  V30 18 C 2.8280 -0.8040 1.0352 0
M  V30 19 C 2.0960 0.1997 0.4467 0
M  V30 20 C 1.8872 1.4954 0.9018 0
M  V30 21 C 1.6460 2.6179 1.2864 0
M  V30 22 C 1.3436 3.9120 1.7459 0
M  V30 23 C 2.2260 4.6084 2.5766 0
M  V30 24 C 1.9023 5.8725 3.0221 0
M  V30 25 C 0.6961 6.4736 2.6575 0
M  V30 26 C 0.3790 7.8226 3.1486 0
M  V30 27 C -0.0635 8.8491 2.2656 0
M  V30 28 C -0.3803 10.1389 2.7863 0
M  V30 29 C -0.8165 11.1277 1.8754 0
M  V30 30 C -0.9174 10.8332 0.5457 0
M  V30 31 N -0.5878 9.6150 0.0588 0
M  V30 32 C -0.1696 8.6708 0.8745 0
M  V30 33 C -0.2398 10.3864 4.1638 0
M  V30 34 C 0.2118 9.3921 4.9916 0
M  V30 35 C 0.5196 8.1221 4.4863 0
M  V30 36 C -0.1913 5.7643 1.8447 0
M  V30 37 C 0.1309 4.5061 1.3843 0
M  V30 38 S 1.3153 -0.3481 -1.0128 0
M  V30 39 C 2.2234 -5.4689 -4.1285 0
M  V30 40 C 1.9838 -6.5549 -4.9435 0
M  V30 41 C -0.2599 -9.8548 -4.0335 0
M  V30 42 N -0.6919 -11.0238 -3.6110 0
M  V30 43 C -0.8602 -12.0420 -4.4878 0
M  V30 44 H -0.7275 -12.7231 -6.5001 0
M  V30 45 H 1.2008 -7.2477 -7.5419 0
M  V30 46 H 0.8907 -9.0853 -9.1320 0
M  V30 47 H 0.0323 -11.2701 -8.3698 0
M  V30 48 H -1.2459 -7.1541 -4.1268 0
M  V30 49 H -0.8182 -5.2289 -2.6599 0
M  V30 50 H 3.2541 -2.9162 0.6410 0
M  V30 51 H 3.3807 -0.6668 1.9476 0
M  V30 52 H 3.1612 4.1518 2.8636 0
M  V30 53 H 2.5970 6.4131 3.6474 0
M  V30 54 H -1.0638 12.1113 2.2418 0
M  V30 55 H -1.2543 11.5682 -0.1807 0
M  V30 56 H 0.1160 7.7243 0.4190 0
M  V30 57 H -0.4864 11.3621 4.5526 0
M  V30 58 H 0.3282 9.5784 6.0484 0
M  V30 59 H 0.8538 7.3547 5.1681 0
M  V30 60 H -1.1588 6.1848 1.6108 0
M  V30 61 H -0.5566 3.9586 0.7590 0
M  V30 62 H 3.1883 -4.9848 -4.1339 0
M  V30 63 H 2.7702 -6.9283 -5.5824 0
M  V30 64 H -0.1200 -9.0819 -3.2812 0
M  V30 65 H -1.2108 -12.9851 -4.0721 0
M  V30 66 C 2.8539 -12.4962 -1.1431 0
M  V30 67 C 3.4419 -11.4286 -0.4281 0
M  V30 68 C 2.6273 -10.2939 -0.1343 0
M  V30 69 C 3.1777 -9.2088 0.6052 0
M  V30 70 C 4.4851 -9.3029 1.0330 0
M  V30 71 C 5.2823 -10.4155 0.7351 0
M  V30 72 C 4.7779 -11.4628 0.0105 0
M  V30 73 C 2.4084 -7.9989 0.9410 0
M  V30 74 C 1.7618 -7.2351 -0.0322 0
M  V30 75 C 1.1373 -6.0511 0.3025 0
M  V30 76 C 1.1415 -5.6002 1.6251 0
M  V30 77 C 0.5646 -4.3627 1.9634 0
M  V30 78 C 0.1149 -3.2912 2.3061 0
M  V30 79 C -0.4183 -2.0611 2.6696 0
M  V30 80 C -0.6236 -1.5651 3.9384 0
M  V30 81 C -1.1969 -0.2910 3.9459 0
M  V30 82 C -1.4337 0.2036 2.6827 0
M  V30 83 C -2.0240 1.4078 2.3219 0
M  V30 84 C -2.5705 2.4286 1.9667 0
M  V30 85 C -3.2212 3.6093 1.5651 0
M  V30 86 C -3.8244 4.4472 2.5082 0
M  V30 87 C -4.4897 5.5829 2.0979 0
M  V30 88 C -4.5496 5.9280 0.7466 0
M  V30 89 C -5.3120 7.1195 0.3371 0
M  V30 90 C -4.7338 8.1534 -0.4520 0
M  V30 91 C -5.5279 9.2774 -0.8283 0
M  V30 92 C -4.9088 10.2965 -1.5866 0
M  V30 93 C -3.5850 10.1979 -1.9071 0
M  V30 94 N -2.8343 9.1394 -1.5235 0
M  V30 95 C -3.3798 8.1595 -0.8346 0
M  V30 96 C -6.8725 9.3485 -0.4210 0
M  V30 97 C -7.4020 8.3525 0.3564 0
M  V30 98 C -6.6236 7.2514 0.7376 0
M  V30 99 C -3.9338 5.0975 -0.1911 0
M  V30 100 C -3.2860 3.9475 0.2089 0
M  V30 101 S -0.9305 -0.9237 1.4587 0
M  V30 102 C 1.7593 -6.3793 2.6091 0
M  V30 103 C 2.3894 -7.5553 2.2653 0
M  V30 104 C 1.2847 -10.3375 -0.5532 0
M  V30 105 N 0.7715 -11.3569 -1.2091 0
M  V30 106 C 1.5410 -12.4276 -1.5111 0
M  V30 107 H 3.4486 -13.3636 -1.3816 0
M  V30 108 H 4.9155 -8.4883 1.5958 0
M  V30 109 H 6.3042 -10.4372 1.0817 0
M  V30 110 H 5.3884 -12.3208 -0.2241 0
M  V30 111 H 1.7948 -7.5422 -1.0674 0
M  V30 112 H 0.6650 -5.4467 -0.4556 0
M  V30 113 H -0.3697 -2.1151 4.8272 0
M  V30 114 H -1.4369 0.2560 4.8404 0
M  V30 115 H -3.7760 4.1915 3.5559 0
M  V30 116 H -4.9602 6.2224 2.8299 0
M  V30 117 H -5.4874 11.1536 -1.8922 0
M  V30 118 H -3.0743 10.9693 -2.4790 0
M  V30 119 H -2.7275 7.3370 -0.5466 0
M  V30 120 H -7.4699 10.1960 -0.7192 0
M  V30 121 H -8.4299 8.4059 0.6812 0
M  V30 122 H -7.0710 6.4776 1.3431 0
M  V30 123 H -4.0025 5.3314 -1.2434 0
M  V30 124 H -2.8434 3.2871 -0.5213 0
M  V30 125 H 1.7575 -6.0420 3.6348 0
M  V30 126 H 2.8720 -8.1466 3.0293 0
M  V30 127 H 0.6152 -9.5111 -0.3212 0
M  V30 128 H 1.0545 -13.2334 -2.0558 0
M  V30 129 C -1.6219 -13.4418 1.9300 0
M  V30 130 C -1.9234 -12.4449 2.8856 0
M  V30 131 C -2.0899 -11.1094 2.4165 0
M  V30 132 C -2.3973 -10.0715 3.3397 0
M  V30 133 C -2.4719 -10.3780 4.6791 0
M  V30 134 C -2.3002 -11.6922 5.1370 0
M  V30 135 C -2.0464 -12.7151 4.2610 0
M  V30 136 C -2.6426 -8.7006 2.8633 0
M  V30 137 C -1.9024 -7.6315 3.3632 0
M  V30 138 C -2.1200 -6.3503 2.8996 0
M  V30 139 C -3.1006 -6.1122 1.9347 0
M  V30 140 C -3.3172 -4.8102 1.4376 0
M  V30 141 C -3.5375 -3.7063 0.9948 0
M  V30 142 C -3.7268 -2.4175 0.5015 0
M  V30 143 C -4.3653 -1.3687 1.1144 0
M  V30 144 C -4.3111 -0.1847 0.3683 0
M  V30 145 C -3.6270 -0.3230 -0.8142 0
M  V30 146 C -3.3601 0.6800 -1.7446 0
M  V30 147 C -3.1206 1.5765 -2.5212 0
M  V30 148 C -2.8514 2.6558 -3.3905 0
M  V30 149 C -3.7865 3.0422 -4.3530 0
M  V30 150 C -3.5185 4.1075 -5.1865 0
M  V30 151 C -2.3218 4.8185 -5.0788 0
M  V30 152 C -2.0657 5.9311 -6.0085 0
M  V30 153 C -1.6703 7.2236 -5.5595 0
M  V30 154 C -1.4515 8.2602 -6.5158 0
M  V30 155 C -1.0820 9.5362 -6.0339 0
M  V30 156 C -0.9476 9.7443 -4.6914 0
M  V30 157 N -1.1673 8.7577 -3.7909 0
M  V30 158 C -1.5201 7.5575 -4.1999 0
M  V30 159 C -1.6213 7.9952 -7.8868 0
M  V30 160 C -2.0108 6.7471 -8.2952 0
M  V30 161 C -2.2357 5.7277 -7.3611 0
M  V30 162 C -1.3885 4.4243 -4.1197 0
M  V30 163 C -1.6496 3.3584 -3.2832 0
M  V30 164 S -3.0584 -1.9516 -1.0392 0
M  V30 165 C -3.8710 -7.1760 1.4600 0
M  V30 166 C -3.6364 -8.4564 1.9140 0
M  V30 167 C -1.8829 -10.8686 1.0459 0
M  V30 168 N -1.5855 -11.8212 0.1901 0
M  V30 169 C -1.4681 -13.1006 0.6165 0
M  V30 170 H -1.5039 -14.4645 2.2512 0
M  V30 171 H -2.6934 -9.5967 5.3905 0
M  V30 172 H -2.3832 -11.8935 6.1942 0
M  V30 173 H -1.9317 -13.7288 4.6121 0
M  V30 174 H -1.1390 -7.8143 4.1042 0
M  V30 175 H -1.5341 -5.5247 3.2731 0
M  V30 176 H -4.8450 -1.4556 2.0732 0
M  V30 177 H -4.7428 0.7467 0.6867 0
M  V30 178 H -4.7164 2.5008 -4.4409 0
M  V30 179 H -4.2499 4.4077 -5.9220 0
M  V30 180 H -0.9144 10.3379 -6.7353 0
M  V30 181 H -0.6665 10.7145 -4.2867 0
M  V30 182 H -1.7113 6.8134 -3.4296 0
M  V30 183 H -1.4467 8.7841 -8.6017 0
M  V30 184 H -2.1476 6.5376 -9.3451 0
M  V30 185 H -2.5328 4.7518 -7.7140 0
M  V30 186 H -0.4342 4.9268 -4.0577 0
M  V30 187 H -0.9214 3.0488 -2.5501 0
M  V30 188 H -4.6562 -6.9802 0.7456 0
M  V30 189 H -4.2457 -9.2748 1.5592 0
M  V30 190 H -1.9522 -9.8560 0.6522 0
M  V30 191 H -1.2259 -13.8416 -0.1424 0
M  V30 192 C -5.1024 -12.6557 -2.4735 0
M  V30 193 C -5.7921 -11.4956 -2.8907 0
M  V30 194 C -5.0607 -10.2716 -2.9427 0
M  V30 195 C -5.7052 -9.0923 -3.4129 0
M  V30 196 C -7.0247 -9.1711 -3.8006 0
M  V30 197 C -7.7458 -10.3698 -3.7191 0
M  V30 198 C -7.1458 -11.5175 -3.2727 0
M  V30 199 C -4.9880 -7.8129 -3.5451 0
M  V30 200 C -4.3465 -7.2064 -2.4651 0
M  V30 201 C -3.6970 -5.9982 -2.6171 0
M  V30 202 C -3.6499 -5.3810 -3.8714 0
M  V30 203 C -2.9254 -4.1928 -4.0753 0
M  V30 204 C -2.2580 -3.2146 -4.3298 0
M  V30 205 C -1.4694 -2.1075 -4.6150 0
M  V30 206 C -1.0643 -1.6755 -5.8591 0
M  V30 207 C -0.2522 -0.5411 -5.8066 0
M  V30 208 C -0.0320 -0.0927 -4.5225 0
M  V30 209 C 0.7026 1.0224 -4.1405 0
M  V30 210 C 1.3239 2.0069 -3.8056 0
M  V30 211 C 2.0056 3.2022 -3.5133 0
M  V30 212 C 2.7824 3.8096 -4.5060 0
M  V30 213 C 3.4112 5.0097 -4.2558 0
M  V30 214 C 3.2601 5.6501 -3.0251 0
M  V30 215 C 3.9270 6.9489 -2.8222 0
M  V30 216 C 3.1877 8.1282 -2.5263 0
M  V30 217 C 3.8704 9.3759 -2.4179 0
M  V30 218 C 3.0929 10.5321 -2.1826 0
M  V30 219 C 1.7359 10.4289 -2.0704 0
M  V30 220 N 1.0984 9.2385 -2.1648 0
M  V30 221 C 1.7878 8.1389 -2.3825 0
M  V30 222 C 5.2683 9.4206 -2.5696 0
M  V30 223 C 5.9601 8.2715 -2.8480 0
M  V30 224 C 5.2903 7.0482 -2.9880 0
M  V30 225 C 2.5018 5.0343 -2.0296 0
M  V30 226 C 1.8928 3.8174 -2.2625 0
M  V30 227 S -0.8381 -1.0941 -3.3498 0
M  V30 228 C -4.3044 -5.9807 -4.9533 0
M  V30 229 C -4.9754 -7.1722 -4.7850 0
M  V30 230 C -3.7036 -10.3105 -2.5714 0
M  V30 231 N -3.0944 -11.4140 -2.1908 0
M  V30 232 C -3.7791 -12.5806 -2.1449 0
M  V30 233 H -5.6275 -13.5966 -2.4310 0
M  V30 234 H -7.5220 -8.2838 -4.1629 0
M  V30 235 H -8.7826 -10.3804 -4.0189 0
M  V30 236 H -7.6942 -12.4450 -3.2178 0
M  V30 237 H -4.3851 -7.6743 -1.4927 0
M  V30 238 H -3.2257 -5.5232 -1.7688 0
M  V30 239 H -1.3483 -2.1729 -6.7692 0
M  V30 240 H 0.1615 -0.0543 -6.6718 0
M  V30 241 H 2.8845 3.3302 -5.4676 0
M  V30 242 H 4.0087 5.4752 -5.0255 0
M  V30 243 H 3.5807 11.4906 -2.1037 0
M  V30 244 H 1.1079 11.3010 -1.9046 0
M  V30 245 H 1.2252 7.2106 -2.4628 0
M  V30 246 H 5.7790 10.3662 -2.4747 0
M  V30 247 H 7.0320 8.3001 -2.9715 0
M  V30 248 H 5.8598 6.1609 -3.2206 0
M  V30 249 H 2.4155 5.4968 -1.0570 0
M  V30 250 H 1.3332 3.3322 -1.4767 0
M  V30 251 H -4.2792 -5.5009 -5.9198 0
M  V30 252 H -5.4767 -7.6302 -5.6245 0
M  V30 253 H -3.1034 -9.4035 -2.6052 0
M  V30 254 H -3.2186 -13.4597 -1.8387 0
M  V30 END ATOM
M  V30 BEGIN BOND
M  V30 1 2 3 4
M  V30 2 1 4 5
M  V30 3 1 5 6
M  V30 4 2 6 7
M  V30 5 1 7 8
M  V30 6 2 8 9
M  V30 7 1 6 10
M  V30 8 2 10 11
M  V30 9 1 11 12
M  V30 10 2 12 13
M  V30 11 1 13 14
M  V30 12 3 14 15
M  V30 13 1 15 16
M  V30 14 2 16 17
M  V30 15 1 17 18
M  V30 16 2 18 19
M  V30 17 1 19 20
M  V30 18 3 20 21
M  V30 19 1 21 22
M  V30 20 2 22 23
M  V30 21 1 23 24
M  V30 22 2 24 25
M  V30 23 1 25 26
M  V30 24 1 26 27
M  V30 25 1 27 28
M  V30 26 2 28 29
M  V30 27 1 29 30
M  V30 28 2 30 31
M  V30 29 1 31 32
M  V30 30 1 28 33
M  V30 31 2 33 34
M  V30 32 1 34 35
M  V30 33 1 25 36
M  V30 34 2 36 37
M  V30 35 1 19 38
M  V30 36 1 13 39
M  V30 37 2 39 40
M  V30 38 2 5 41
M  V30 39 1 41 42
M  V30 40 2 42 43
M  V30 41 1 43 3
M  V30 42 1 9 4
M  V30 43 1 40 10
M  V30 44 1 38 16
M  V30 45 1 37 22
M  V30 46 2 35 26
M  V30 47 2 32 27
M  V30 48 1 3 44
M  V30 49 1 7 45
M  V30 50 1 8 46
M  V30 51 1 9 47
M  V30 52 1 11 48
M  V30 53 1 12 49
M  V30 54 1 17 50
M  V30 55 1 18 51
M  V30 56 1 23 52
M  V30 57 1 24 53
M  V30 58 1 29 54
M  V30 59 1 30 55
M  V30 60 1 32 56
M  V30 61 1 33 57
M  V30 62 1 34 58
M  V30 63 1 35 59
M  V30 64 1 36 60
M  V30 65 1 37 61
M  V30 66 1 39 62
M  V30 67 1 40 63
M  V30 68 1 41 64
M  V30 69 1 43 65
M  V30 70 2 66 67
M  V30 71 1 67 68
M  V30 72 1 68 69
M  V30 73 2 69 70
M  V30 74 1 70 71
M  V30 75 2 71 72
M  V30 76 1 69 73
M  V30 77 2 73 74
M  V30 78 1 74 75
M  V30 79 2 75 76
M  V30 80 1 76 77
M  V30 81 3 77 78
M  V30 82 1 78 79
M  V30 83 2 79 80
M  V30 84 1 80 81
M  V30 85 2 81 82
M  V30 86 1 82 83
M  V30 87 3 83 84
M  V30 88 1 84 85
M  V30 89 2 85 86
M  V30 90 1 86 87
M  V30 91 2 87 88
M  V30 92 1 88 89
M  V30 93 1 89 90
M  V30 94 1 90 91
M  V30 95 2 91 92
M  V30 96 1 92 93
M  V30 97 2 93 94
M  V30 98 1 94 95
M  V30 99 1 91 96
M  V30 100 2 96 97
M  V30 101 1 97 98
M  V30 102 1 88 99
M  V30 103 2 99 100
M  V30 104 1 82 101
M  V30 105 1 76 102
M  V30 106 2 102 103
M  V30 107 2 68 104
M  V30 108 1 104 105
M  V30 109 2 105 106
M  V30 110 1 106 66
M  V30 111 1 72 67
M  V30 112 1 103 73
M  V30 113 1 101 79
M  V30 114 1 100 85
M  V30 115 2 98 89
M  V30 116 2 95 90
M  V30 117 1 66 107
M  V30 118 1 70 108
M  V30 119 1 71 109
M  V30 120 1 72 110
M  V30 121 1 74 111
M  V30 122 1 75 112
M  V30 123 1 80 113
M  V30 124 1 81 114
M  V30 125 1 86 115
M  V30 126 1 87 116
M  V30 127 1 92 117
M  V30 128 1 93 118
M  V30 129 1 95 119
M  V30 130 1 96 120
M  V30 131 1 97 121
M  V30 132 1 98 122
M  V30 133 1 99 123
M  V30 134 1 100 124
M  V30 135 1 102 125
M  V30 136 1 103 126
M  V30 137 1 104 127
M  V30 138 1 106 128
M  V30 139 2 129 130
M  V30 140 1 130 131
M  V30 141 1 131 132
M  V30 142 2 132 133
M  V30 143 1 133 134
M  V30 144 2 134 135
M  V30 145 1 132 136
M  V30 146 2 136 137
M  V30 147 1 137 138
M  V30 148 2 138 139
M  V30 149 1 139 140
M  V30 150 3 140 141
M  V30 151 1 141 142
M  V30 152 2 142 143
M  V30 153 1 143 144
M  V30 154 2 144 145
M  V30 155 1 145 146
M  V30 156 3 146 147
M  V30 157 1 147 148
M  V30 158 2 148 149
M  V30 159 1 149 150
M  V30 160 2 150 151
M  V30 161 1 151 152
M  V30 162 1 152 153
M  V30 163 1 153 154
M  V30 164 2 154 155
M  V30 165 1 155 156
M  V30 166 2 156 157
M  V30 167 1 157 158
M  V30 168 1 154 159
M  V30 169 2 159 160
M  V30 170 1 160 161
M  V30 171 1 151 162
M  V30 172 2 162 163
M  V30 173 1 145 164
M  V30 174 1 139 165
M  V30 175 2 165 166
M  V30 176 2 131 167
M  V30 177 1 167 168
M  V30 178 2 168 169
M  V30 179 1 169 129
M  V30 180 1 135 130
M  V30 181 1 166 136
M  V30 182 1 164 142
M  V30 183 1 163 148
M  V30 184 2 161 152
M  V30 185 2 158 153
M  V30 186 1 129 170
M  V30 187 1 133 171
M  V30 188 1 134 172
M  V30 189 1 135 173
M  V30 190 1 137 174
M  V30 191 1 138 175
M  V30 192 1 143 176
M  V30 193 1 144 177
M  V30 194 1 149 178
M  V30 195 1 150 179
M  V30 196 1 155 180
M  V30 197 1 156 181
M  V30 198 1 158 182
M  V30 199 1 159 183
M  V30 200 1 160 184
M  V30 201 1 161 185
M  V30 202 1 162 186
M  V30 203 1 163 187
M  V30 204 1 165 188
M  V30 205 1 166 189
M  V30 206 1 167 190
M  V30 207 1 169 191
M  V30 208 2 192 193
M  V30 209 1 193 194
M  V30 210 1 194 195
M  V30 211 2 195 196
M  V30 212 1 196 197
M  V30 213 2 197 198
M  V30 214 1 195 199
M  V30 215 2 199 200
M  V30 216 1 200 201
M  V30 217 2 201 202
M  V30 218 1 202 203
M  V30 219 3 203 204
M  V30 220 1 204 205
M  V30 221 2 205 206
M  V30 222 1 206 207
M  V30 223 2 207 208
M  V30 224 1 208 209
M  V30 225 3 209 210
M  V30 226 1 210 211
M  V30 227 2 211 212
M  V30 228 1 212 213
M  V30 229 2 213 214
M  V30 230 1 214 215
M  V30 231 1 215 216
M  V30 232 1 216 217
M  V30 233 2 217 218
M  V30 234 1 218 219
M  V30 235 2 219 220
M  V30 236 1 220 221
M  V30 237 1 217 222
M  V30 238 2 222 223
M  V30 239 1 223 224
M  V30 240 1 214 225
M  V30 241 2 225 226
M  V30 242 1 208 227
M  V30 243 1 202 228
M  V30 244 2 228 229
M  V30 245 2 194 230
M  V30 246 1 230 231
M  V30 247 2 231 232
M  V30 248 1 232 192
M  V30 249 1 198 193
M  V30 250 1 229 199
M  V30 251 1 227 205
M  V30 252 1 226 211
M  V30 253 2 224 215
M  V30 254 2 221 216
M  V30 255 1 192 233
M  V30 256 1 196 234
M  V30 257 1 197 235
M  V30 258 1 198 236
M  V30 259 1 200 237
M  V30 260 1 201 238
M  V30 261 1 206 239
M  V30 262 1 207 240
M  V30 263 1 212 241
M  V30 264 1 213 242
M  V30 265 1 218 243
M  V30 266 1 219 244
M  V30 267 1 221 245
M  V30 268 1 222 246
M  V30 269 1 223 247
M  V30 270 1 224 248
M  V30 271 1 225 249
M  V30 272 1 226 250
M  V30 273 1 228 251
M  V30 274 1 229 252
M  V30 275 1 230 253
M  V30 276 1 232 254
M  V30 277 9 31 1
M  V30 278 9 94 1
M  V30 279 9 157 1
M  V30 280 9 220 1
M  V30 281 9 42 2
M  V30 282 9 105 2
M  V30 283 9 168 2
M  V30 284 9 231 2
M  V30 END BOND
M  V30 END CTAB
M  END

$$$$
