
     RDKit          3D

  0  0  0  0  0  0  0  0  0  0999 V3000
M  V30 BEGIN CTAB
M  V30 COUNTS 220 248 0 0 0
M  V30 BEGIN ATOM
M  V30 1 Pd 7.5421 1.6778 -1.2565 0 CHG=2
M  V30 2 Pd -1.2804 10.7703 -0.7368 0 CHG=2
M  V30 3 Pd -10.3382 1.9849 -1.0336 0 CHG=2
M  V30 4 Pd -1.5181 -7.0970 -1.7251 0 CHG=2
M  V30 5 C 7.5301 5.5043 0.8409 0
M  V30 6 C 8.0245 4.2688 0.4485 0
M  V30 7 N 7.2418 3.2980 -0.0176 0
M  V30 8 C 5.9168 3.5193 -0.0731 0
M  V30 9 C 5.3469 4.7120 0.2924 0
M  V30 10 C 6.1583 5.7667 0.7448 0
M  V30 11 C 5.5435 7.0346 1.0580 0
M  V30 12 C 6.0855 8.2607 1.3841 0
M  V30 13 C 5.1272 9.2694 1.5540 0
M  V30 14 C 3.8332 8.8262 1.3881 0
M  V30 15 S 3.8176 7.1436 1.0044 0
M  V30 16 C 2.5581 9.5071 1.3839 0
M  V30 17 C 1.3815 8.7580 1.5448 0
M  V30 18 C 0.1680 9.3257 1.2352 0
M  V30 19 N 0.0559 10.5842 0.7909 0
M  V30 20 C 1.1441 11.3601 0.8049 0
M  V30 21 C 2.4044 10.8701 1.1037 0
M  V30 22 H 8.2142 6.2507 1.2092 0
M  V30 23 H 9.0852 4.0608 0.5130 0
M  V30 24 H 5.2804 2.7083 -0.4366 0
M  V30 25 H 4.2773 4.8348 0.2159 0
M  V30 26 H 7.1403 8.4404 1.4880 0
M  V30 27 H 5.3823 10.2812 1.8136 0
M  V30 28 H 1.4247 7.7296 1.8678 0
M  V30 29 H -0.7470 8.7527 1.3388 0
M  V30 30 H 1.0105 12.4017 0.5315 0
M  V30 31 H 3.2587 11.5249 1.0498 0
M  V30 32 C 7.8441 5.4354 -2.9177 0
M  V30 33 C 8.2785 4.1468 -2.6562 0
M  V30 34 N 7.4676 3.0866 -2.7265 0
M  V30 35 C 6.2349 3.2620 -3.2198 0
M  V30 36 C 5.7219 4.5070 -3.4979 0
M  V30 37 C 6.5010 5.6486 -3.2500 0
M  V30 38 C 5.8626 6.9452 -3.2251 0
M  V30 39 C 6.3542 8.2296 -3.3098 0
M  V30 40 C 5.3698 9.2130 -3.1406 0
M  V30 41 C 4.1132 8.6988 -2.8960 0
M  V30 42 S 4.1644 6.9696 -2.9186 0
M  V30 43 C 2.8520 9.3410 -2.6119 0
M  V30 44 C 1.7535 8.5455 -2.2430 0
M  V30 45 C 0.5632 9.1375 -1.9063 0
M  V30 46 N 0.3850 10.4702 -1.9131 0
M  V30 47 C 1.3997 11.2403 -2.3003 0
M  V30 48 C 2.6363 10.7233 -2.6587 0
M  V30 49 H 8.5232 6.2633 -2.7956 0
M  V30 50 H 9.3017 3.9650 -2.3439 0
M  V30 51 H 5.6375 2.3729 -3.3901 0
M  V30 52 H 4.7112 4.6002 -3.8634 0
M  V30 53 H 7.3847 8.4616 -3.5110 0
M  V30 54 H 5.5878 10.2647 -3.1865 0
M  V30 55 H 1.8400 7.4702 -2.2082 0
M  V30 56 H -0.2826 8.5128 -1.6077 0
M  V30 57 H 1.2272 12.3090 -2.3269 0
M  V30 58 H 3.4193 11.3980 -2.9629 0
M  V30 59 C 7.8255 -2.0967 0.3477 0
M  V30 60 C 8.2876 -0.8164 0.0926 0
M  V30 61 N 7.5126 0.2656 0.2152 0
M  V30 62 C 6.2981 0.1172 0.7605 0
M  V30 63 C 5.7587 -1.1176 1.0348 0
M  V30 64 C 6.4904 -2.2762 0.7284 0
M  V30 65 C 5.8080 -3.5502 0.6911 0
M  V30 66 C 6.2545 -4.8524 0.7412 0
M  V30 67 C 5.2323 -5.7963 0.5695 0
M  V30 68 C 3.9919 -5.2325 0.3544 0
M  V30 69 S 4.1055 -3.5071 0.4115 0
M  V30 70 C 2.7041 -5.8230 0.0767 0
M  V30 71 C 1.6417 -4.9853 -0.3041 0
M  V30 72 C 0.4242 -5.5286 -0.6249 0
M  V30 73 N 0.1855 -6.8513 -0.5914 0
M  V30 74 C 1.1668 -7.6600 -0.1973 0
M  V30 75 C 2.4275 -7.1935 0.1457 0
M  V30 76 H 8.4729 -2.9421 0.1814 0
M  V30 77 H 9.3019 -0.6587 -0.2591 0
M  V30 78 H 5.7378 1.0203 0.9764 0
M  V30 79 H 4.7621 -1.1887 1.4415 0
M  V30 80 H 7.2791 -5.1247 0.9206 0
M  V30 81 H 5.4128 -6.8560 0.5894 0
M  V30 82 H 1.7774 -3.9159 -0.3595 0
M  V30 83 H -0.3937 -4.8718 -0.9323 0
M  V30 84 H 0.9462 -8.7191 -0.1507 0
M  V30 85 H 3.1810 -7.8972 0.4589 0
M  V30 86 C 7.3869 -2.1257 -3.3992 0
M  V30 87 C 7.9154 -0.9057 -3.0031 0
M  V30 88 N 7.1668 0.0666 -2.4868 0
M  V30 89 C 5.8425 -0.1379 -2.3784 0
M  V30 90 C 5.2401 -1.3144 -2.7441 0
M  V30 91 C 6.0161 -2.3695 -3.2543 0
M  V30 92 C 5.3681 -3.6183 -3.5777 0
M  V30 93 C 5.8775 -4.8541 -3.9188 0
M  V30 94 C 4.8934 -5.8371 -4.0926 0
M  V30 95 C 3.6120 -5.3627 -3.9175 0
M  V30 96 S 3.6402 -3.6840 -3.5179 0
M  V30 97 C 2.3186 -6.0088 -3.9105 0
M  V30 98 C 1.1638 -5.2291 -4.0833 0
M  V30 99 C -0.0644 -5.7558 -3.7595 0
M  V30 100 N -0.2108 -7.0014 -3.2889 0
M  V30 101 C 0.8537 -7.8096 -3.2967 0
M  V30 102 C 2.1265 -7.3624 -3.6100 0
M  V30 103 H 8.0435 -2.8737 -3.8118 0
M  V30 104 H 8.9755 -0.7112 -3.1077 0
M  V30 105 H 5.2343 0.6737 -1.9705 0
M  V30 106 H 4.1731 -1.4246 -2.6244 0
M  V30 107 H 6.9271 -5.0594 -4.0280 0
M  V30 108 H 5.1212 -6.8529 -4.3621 0
M  V30 109 H 1.2361 -4.2085 -4.4251 0
M  V30 110 H -0.9633 -5.1597 -3.8725 0
M  V30 111 H 0.6910 -8.8419 -3.0048 0
M  V30 112 H 2.9618 -8.0407 -3.5488 0
M  V30 113 C -10.2830 -2.0505 0.6259 0
M  V30 114 C -10.7847 -0.7798 0.3842 0
M  V30 115 N -10.0116 0.2376 0.0106 0
M  V30 116 C -8.6885 0.0254 -0.0996 0
M  V30 117 C -8.1119 -1.1996 0.1184 0
M  V30 118 C -8.9142 -2.2990 0.4700 0
M  V30 119 C -8.2940 -3.5930 0.6269 0
M  V30 120 C -8.8301 -4.8483 0.8271 0
M  V30 121 C -7.8696 -5.8685 0.8626 0
M  V30 122 C -6.5790 -5.4081 0.7179 0
M  V30 123 S -6.5699 -3.6933 0.5229 0
M  V30 124 C -5.3053 -6.0828 0.6095 0
M  V30 125 C -4.1243 -5.3548 0.8262 0
M  V30 126 C -2.9189 -5.8832 0.4281 0
M  V30 127 N -2.8186 -7.0844 -0.1559 0
M  V30 128 C -3.9072 -7.8582 -0.2036 0
M  V30 129 C -5.1598 -7.4061 0.1762 0
M  V30 130 H -10.9594 -2.8339 0.9252 0
M  V30 131 H -11.8434 -0.5816 0.4957 0
M  V30 132 H -8.0597 0.8725 -0.3858 0
M  V30 133 H -7.0445 -1.3119 0.0042 0
M  V30 134 H -9.8826 -5.0397 0.9339 0
M  V30 135 H -8.1201 -6.9031 1.0140 0
M  V30 136 H -4.1589 -4.3688 1.2625 0
M  V30 137 H -2.0011 -5.3242 0.5739 0
M  V30 138 H -3.7813 -8.8628 -0.5942 0
M  V30 139 H -6.0159 -8.0518 0.0692 0
M  V30 140 C -10.6835 -1.5657 -3.0936 0
M  V30 141 C -11.1101 -0.3144 -2.6812 0
M  V30 142 N -10.2997 0.7480 -2.6523 0
M  V30 143 C -9.0788 0.6299 -3.1902 0
M  V30 144 C -8.5739 -0.5760 -3.6160 0
M  V30 145 C -9.3486 -1.7391 -3.4782 0
M  V30 146 C -8.7115 -3.0297 -3.6113 0
M  V30 147 C -9.2067 -4.2976 -3.8253 0
M  V30 148 C -8.2199 -5.2924 -3.7883 0
M  V30 149 C -6.9572 -4.8066 -3.5179 0
M  V30 150 S -7.0066 -3.0855 -3.3491 0
M  V30 151 C -5.6907 -5.4746 -3.3353 0
M  V30 152 C -4.5833 -4.7235 -2.9051 0
M  V30 153 C -3.3863 -5.3475 -2.6634 0
M  V30 154 N -3.2097 -6.6709 -2.8226 0
M  V30 155 C -4.2336 -7.3946 -3.2699 0
M  V30 156 C -5.4775 -6.8429 -3.5403 0
M  V30 157 H -11.3607 -2.4027 -3.0483 0
M  V30 158 H -12.1257 -0.1696 -2.3274 0
M  V30 159 H -8.4844 1.5331 -3.2748 0
M  V30 160 H -7.5721 -0.6270 -4.0127 0
M  V30 161 H -10.2419 -4.5073 -4.0267 0
M  V30 162 H -8.4403 -6.3330 -3.9444 0
M  V30 163 H -4.6680 -3.6589 -2.7489 0
M  V30 164 H -2.5334 -4.7587 -2.3162 0
M  V30 165 H -4.0629 -8.4535 -3.4190 0
M  V30 166 H -6.2680 -7.4807 -3.8999 0
M  V30 167 C -5.1815 10.6527 1.2241 0
M  V30 168 C -3.9285 11.1561 0.9057 0
M  V30 169 N -2.9577 10.3975 0.4015 0
M  V30 170 C -3.1988 9.0865 0.2269 0
M  V30 171 C -4.4092 8.5092 0.5136 0
M  V30 172 C -5.4614 9.2981 1.0097 0
M  V30 173 C -6.7431 8.6786 1.2502 0
M  V30 174 C -7.9775 9.2134 1.5553 0
M  V30 175 C -8.9965 8.2549 1.6451 0
M  V30 176 C -8.5529 6.9668 1.4407 0
M  V30 177 S -6.8574 6.9573 1.1185 0
M  V30 178 C -9.2358 5.6956 1.3526 0
M  V30 179 C -8.4987 4.5111 1.5117 0
M  V30 180 C -9.0458 3.3137 1.1148 0
M  V30 181 N -10.2728 3.2250 0.5847 0
M  V30 182 C -11.0492 4.3128 0.6010 0
M  V30 183 C -10.5796 5.5577 0.9856 0
M  V30 184 H -5.9266 11.3163 1.6309 0
M  V30 185 H -3.7056 12.2039 1.0645 0
M  V30 186 H -2.3891 8.4689 -0.1705 0
M  V30 187 H -4.5475 7.4525 0.3430 0
M  V30 188 H -8.1562 10.2641 1.6967 0
M  V30 189 H -10.0164 8.5042 1.8774 0
M  V30 190 H -7.4928 4.5381 1.9004 0
M  V30 191 H -8.4817 2.3930 1.2161 0
M  V30 192 H -12.0716 4.1938 0.2577 0
M  V30 193 H -11.2298 6.4153 0.9292 0
M  V30 194 C -4.9674 11.2381 -2.4948 0
M  V30 195 C -3.6870 11.6496 -2.1640 0
M  V30 196 N -2.6236 10.8471 -2.2711 0
M  V30 197 C -2.7824 9.6612 -2.8736 0
M  V30 198 C -4.0186 9.1719 -3.2247 0
M  V30 199 C -5.1681 9.9259 -2.9391 0
M  V30 200 C -6.4621 9.2828 -2.9870 0
M  V30 201 C -7.7467 9.7721 -3.0767 0
M  V30 202 C -8.7277 8.7745 -2.9899 0
M  V30 203 C -8.2119 7.5091 -2.8015 0
M  V30 204 S -6.4829 7.5698 -2.7770 0
M  V30 205 C -8.8537 6.2311 -2.6038 0
M  V30 206 C -8.0674 5.1269 -2.2323 0
M  V30 207 C -8.6626 3.9162 -1.9859 0
M  V30 208 N -9.9893 3.7233 -2.0856 0
M  V30 209 C -10.7485 4.7460 -2.4729 0
M  V30 210 C -10.2278 6.0032 -2.7430 0
M  V30 211 H -5.8002 11.9041 -2.3390 0
M  V30 212 H -3.5162 12.6433 -1.7631 0
M  V30 213 H -1.8871 9.0828 -3.0734 0
M  V30 214 H -4.1001 8.1954 -3.6759 0
M  V30 215 H -7.9795 10.8113 -3.2255 0
M  V30 216 H -9.7794 8.9893 -3.0496 0
M  V30 217 H -6.9978 5.2245 -2.1258 0
M  V30 218 H -8.0461 3.0651 -1.6850 0
M  V30 219 H -11.8110 4.5629 -2.5738 0
M  V30 220 H -10.8929 6.7916 -3.0545 0
M  V30 END ATOM
M  V30 BEGIN BOND
M  V30 1 2 5 6
M  V30 2 1 6 7
M  V30 3 2 7 8
M  V30 4 1 8 9
M  V30 5 2 9 10
M  V30 6 1 10 11
M  V30 7 2 11 12
M  V30 8 1 12 13
M  V30 9 2 13 14
M  V30 10 1 14 15
M  V30 11 1 14 16
M  V30 12 2 16 17
M  V30 13 1 17 18
M  V30 14 2 18 19
M  V30 15 1 19 20
M  V30 16 2 20 21
M  V30 17 1 10 5
M  V30 18 1 15 11
M  V30 19 1 21 16
M  V30 20 1 5 22
M  V30 21 1 6 23
M  V30 22 1 8 24
M  V30 23 1 9 25
M  V30 24 1 12 26
M  V30 25 1 13 27
M  V30 26 1 17 28
M  V30 27 1 18 29
M  V30 28 1 20 30
M  V30 29 1 21 31
M  V30 30 2 32 33
M  V30 31 1 33 34
M  V30 32 2 34 35
M  V30 33 1 35 36
M  V30 34 2 36 37
M  V30 35 1 37 38
M  V30 36 2 38 39
M  V30 37 1 39 40
M  V30 38 2 40 41
M  V30 39 1 41 42
M  V30 40 1 41 43
M  V30 41 2 43 44
M  V30 42 1 44 45
M  V30 43 2 45 46
M  V30 44 1 46 47
M  V30 45 2 47 48
M  V30 46 1 37 32
M  V30 47 1 42 38
M  V30 48 1 48 43
M  V30 49 1 32 49
M  V30 50 1 33 50
M  V30 51 1 35 51
M  V30 52 1 36 52
M  V30 53 1 39 53
M  V30 54 1 40 54
M  V30 55 1 44 55
M  V30 56 1 45 56
M  V30 57 1 47 57
M  V30 58 1 48 58
M  V30 59 2 59 60
M  V30 60 1 60 61
M  V30 61 2 61 62
M  V30 62 1 62 63
M  V30 63 2 63 64
M  V30 64 1 64 65
M  V30 65 2 65 66
M  V30 66 1 66 67
M  V30 67 2 67 68
M  V30 68 1 68 69
M  V30 69 1 68 70
M  V30 70 2 70 71
M  V30 71 1 71 72
M  V30 72 2 72 73
M  V30 73 1 73 74
M  V30 74 2 74 75
M  V30 75 1 64 59
M  V30 76 1 69 65
M  V30 77 1 75 70
M  V30 78 1 59 76
M  V30 79 1 60 77
M  V30 80 1 62 78
M  V30 81 1 63 79
M  V30 82 1 66 80
M  V30 83 1 67 81
M  V30 84 1 71 82
M  V30 85 1 72 83
M  V30 86 1 74 84
M  V30 87 1 75 85
M  V30 88 2 86 87
M  V30 89 1 87 88
M  V30 90 2 88 89
M  V30 91 1 89 90
M  V30 92 2 90 91
M  V30 93 1 91 92
M  V30 94 2 92 93
M  V30 95 1 93 94
M  V30 96 2 94 95
M  V30 97 1 95 96
M  V30 98 1 95 97
M  V30 99 2 97 98
M  V30 100 1 98 99
M  V30 101 2 99 100
M  V30 102 1 100 101
M  V30 103 2 101 102
M  V30 104 1 91 86
M  V30 105 1 96 92
M  V30 106 1 102 97
M  V30 107 1 86 103
M  V30 108 1 87 104
M  V30 109 1 89 105
M  V30 110 1 90 106
M  V30 111 1 93 107
M  V30 112 1 94 108
M  V30 113 1 98 109
M  V30 114 1 99 110
M  V30 115 1 101 111
M  V30 116 1 102 112
M  V30 117 2 113 114
M  V30 118 1 114 115
M  V30 119 2 115 116
M  V30 120 1 116 117
M  V30 121 2 117 118
M  V30 122 1 118 119
M  V30 123 2 119 120
M  V30 124 1 120 121
M  V30 125 2 121 122
M  V30 126 1 122 123
M  V30 127 1 122 124
M  V30 128 2 124 125
M  V30 129 1 125 126
M  V30 130 2 126 127
M  V30 131 1 127 128
M  V30 132 2 128 129
M  V30 133 1 118 113
M  V30 134 1 123 119
M  V30 135 1 129 124
M  V30 136 1 113 130
M  V30 137 1 114 131
M  V30 138 1 116 132
M  V30 139 1 117 133
M  V30 140 1 120 134
M  V30 141 1 121 135
M  V30 142 1 125 136
M  V30 143 1 126 137
M  V30 144 1 128 138
M  V30 145 1 129 139
M  V30 146 2 140 141
M  V30 147 1 141 142
M  V30 148 2 142 143
M  V30 149 1 143 144
M  V30 150 2 144 145
M  V30 151 1 145 146
M  V30 152 2 146 147
M  V30 153 1 147 148
M  V30 154 2 148 149
M  V30 155 1 149 150
M  V30 156 1 149 151
M  V30 157 2 151 152
M  V30 158 1 152 153
M  V30 159 2 153 154
M  V30 160 1 154 155
M  V30 161 2 155 156
M  V30 162 1 145 140
M  V30 163 1 150 146
M  V30 164 1 156 151
M  V30 165 1 140 157
M  V30 166 1 141 158
M  V30 167 1 143 159
M  V30 168 1 144 160
M  V30 169 1 147 161
M  V30 170 1 148 162
M  V30 171 1 152 163
M  V30 172 1 153 164
M  V30 173 1 155 165
M  V30 174 1 156 166
M  V30 175 2 167 168
M  V30 176 1 168 169
M  V30 177 2 169 170
M  V30 178 1 170 171
M  V30 179 2 171 172
M  V30 180 1 172 173
M  V30 181 2 173 174
M  V30 182 1 174 175
M  V30 183 2 175 176
M  V30 184 1 176 177
M  V30 185 1 176 178
M  V30 186 2 178 179
M  V30 187 1 179 180
M  V30 188 2 180 181
M  V30 189 1 181 182
M  V30 190 2 182 183
M  V30 191 1 172 167
M  V30 192 1 177 173
M  V30 193 1 183 178
M  V30 194 1 167 184
M  V30 195 1 168 185
M  V30 196 1 170 186
M  V30 197 1 171 187
M  V30 198 1 174 188
M  V30 199 1 175 189
M  V30 200 1 179 190
M  V30 201 1 180 191
M  V30 202 1 182 192
M  V30 203 1 183 193
M  V30 204 2 194 195
M  V30 205 1 195 196
M  V30 206 2 196 197
M  V30 207 1 197 198
M  V30 208 2 198 199
M  V30 209 1 199 200
M  V30 210 2 200 201
M  V30 211 1 201 202
M  V30 212 2 202 203
M  V30 213 1 203 204
M  V30 214 1 203 205
M  V30 215 2 205 206
M  V30 216 1 206 207
M  V30 217 2 207 208
M  V30 218 1 208 209
M  V30 219 2 209 210
M  V30 220 1 199 194
M  V30 221 1 204 200
M  V30 222 1 210 205
M  V30 223 1 194 211
M  V30 224 1 195 212
M  V30 225 1 197 213
M  V30 226 1 198 214
M  V30 227 1 201 215
M  V30 228 1 202 216
M  V30 229 1 206 217
M  V30 230 1 207 218
M  V30 231 1 209 219
M  V30 232 1 210 220
M  V30 233 9 7 1
M  V30 234 9 34 1
M  V30 235 9 61 1
M  V30 236 9 88 1
M  V30 237 9 19 2
M  V30 238 9 46 2
M  V30 239 9 169 2
M  V30 240 9 196 2
M  V30 241 9 181 3
M  V30 242 9 208 3
M  V30 243 9 115 3
M  V30 244 9 142 3
M  V30 245 9 127 4
M  V30 246 9 154 4
M  V30 247 9 73 4
M  V30 248 9 100 4
M  V30 END BOND
M  V30 END CTAB
M  END

$$$$
