
     RDKit          3D

  0  0  0  0  0  0  0  0  0  0999 V3000
M  V30 BEGIN CTAB
M  V30 COUNTS 474 540 0 0 0
M  V30 BEGIN ATOM
M  V30 1 Pd 11.4592 0.9163 -1.3451 0 CHG=2
M  V30 2 Pd 0.4884 10.6620 -0.3066 0 CHG=2
M  V30 3 Pd -9.5237 -0.5718 -0.0179 0 CHG=2
M  V30 4 Pd 1.5805 -10.4074 -0.8219 0 CHG=2
M  V30 5 Pd 1.7318 0.1251 9.9265 0 CHG=2
M  V30 6 Pd 0.1219 0.0396 -11.1530 0 CHG=2
M  V30 7 C 10.2518 3.4803 -1.9811 0
M  V30 8 N 11.3827 2.8932 -1.5784 0
M  V30 9 C 12.4465 3.6535 -1.3174 0
M  V30 10 C 12.4118 5.0308 -1.4175 0
M  V30 11 C 11.2359 5.6707 -1.8259 0
M  V30 12 C 11.1371 7.1313 -1.8836 0
M  V30 13 C 12.2746 7.9201 -2.1252 0
M  V30 14 C 12.2320 9.3008 -2.1048 0
M  V30 15 C 11.0116 9.9008 -1.8400 0
M  V30 16 O 10.7563 11.2318 -1.7288 0
M  V30 17 C 9.4290 11.3469 -1.4623 0
M  V30 18 C 8.7138 12.5130 -1.2425 0
M  V30 19 C 7.3583 12.3978 -1.0023 0
M  V30 20 C 6.6976 11.1567 -0.9939 0
M  V30 21 C 5.2492 11.0752 -0.7889 0
M  V30 22 C 4.6412 9.8952 -0.3367 0
M  V30 23 C 3.2707 9.8286 -0.2167 0
M  V30 24 N 2.4750 10.8707 -0.4741 0
M  V30 25 C 3.0302 12.0132 -0.8776 0
M  V30 26 C 4.3931 12.1492 -1.0621 0
M  V30 27 C 7.4347 9.9907 -1.2002 0
M  V30 28 C 8.7973 10.0871 -1.4146 0
M  V30 29 C 9.8473 9.1301 -1.6426 0
M  V30 30 C 9.9086 7.7480 -1.6538 0
M  V30 31 C 10.1431 4.8470 -2.1288 0
M  V30 32 H 9.4112 2.8207 -2.1863 0
M  V30 33 H 13.3563 3.1482 -1.0033 0
M  V30 34 H 13.2875 5.6014 -1.1557 0
M  V30 35 H 13.2175 7.4480 -2.3527 0
M  V30 36 H 13.1149 9.8945 -2.2798 0
M  V30 37 H 9.2030 13.4738 -1.2573 0
M  V30 38 H 6.8088 13.3029 -0.7977 0
M  V30 39 H 5.2359 9.0386 -0.0698 0
M  V30 40 H 2.7810 8.9079 0.0906 0
M  V30 41 H 2.3646 12.8496 -1.0720 0
M  V30 42 H 4.7785 13.0844 -1.4327 0
M  V30 43 H 6.9664 9.0219 -1.2317 0
M  V30 44 H 9.0221 7.1745 -1.4415 0
M  V30 45 H 9.2222 5.2739 -2.4888 0
M  V30 46 C 10.4666 -1.7074 -0.5862 0
M  V30 47 N 11.5213 -1.0644 -1.0955 0
M  V30 48 C 12.6321 -1.7511 -1.3629 0
M  V30 49 C 12.7341 -3.1089 -1.1288 0
M  V30 50 C 11.6491 -3.8004 -0.5800 0
M  V30 51 C 11.7165 -5.2341 -0.2871 0
M  V30 52 C 12.9251 -5.8106 0.1362 0
M  V30 53 C 13.0269 -7.1508 0.4543 0
M  V30 54 C 11.8831 -7.9240 0.3407 0
M  V30 55 O 11.7592 -9.2461 0.6289 0
M  V30 56 C 10.4571 -9.5662 0.4083 0
M  V30 57 C 9.8571 -10.7990 0.6061 0
M  V30 58 C 8.5043 -10.8994 0.3462 0
M  V30 59 C 7.7474 -9.8058 -0.1054 0
M  V30 60 C 6.3081 -9.9500 -0.3363 0
M  V30 61 C 5.4300 -8.8790 -0.1226 0
M  V30 62 C 4.0786 -9.0503 -0.3323 0
M  V30 63 N 3.5601 -10.2181 -0.7252 0
M  V30 64 C 4.3762 -11.2494 -0.9406 0
M  V30 65 C 5.7443 -11.1550 -0.7687 0
M  V30 66 C 8.3644 -8.5736 -0.3108 0
M  V30 67 C 9.7181 -8.4550 -0.0490 0
M  V30 68 C 10.6607 -7.3683 -0.0921 0
M  V30 69 C 10.5751 -6.0233 -0.4075 0
M  V30 70 C 10.4908 -3.0587 -0.3132 0
M  V30 71 H 9.5833 -1.1029 -0.3886 0
M  V30 72 H 13.4694 -1.1997 -1.7840 0
M  V30 73 H 13.6446 -3.6265 -1.3828 0
M  V30 74 H 13.8016 -5.1924 0.2528 0
M  V30 75 H 13.9565 -7.5834 0.7879 0
M  V30 76 H 10.4285 -11.6425 0.9593 0
M  V30 77 H 8.0212 -11.8461 0.5311 0
M  V30 78 H 5.8038 -7.9327 0.2308 0
M  V30 79 H 3.3722 -8.2360 -0.1783 0
M  V30 80 H 3.9248 -12.1826 -1.2674 0
M  V30 81 H 6.3661 -12.0094 -0.9803 0
M  V30 82 H 7.8165 -7.7291 -0.6945 0
M  V30 83 H 9.6460 -5.6129 -0.7668 0
M  V30 84 H 9.6318 -3.5354 0.1287 0
M  V30 85 C 10.5591 1.5170 1.3690 0
M  V30 86 N 11.6074 1.1321 0.6357 0
M  V30 87 C 12.7420 0.8053 1.2555 0
M  V30 88 C 12.8623 0.8191 2.6307 0
M  V30 89 C 11.7753 1.2085 3.4227 0
M  V30 90 C 11.8537 1.1808 4.8855 0
M  V30 91 C 13.0905 1.3531 5.5306 0
M  V30 92 C 13.2272 1.2474 6.9001 0
M  V30 93 C 12.0878 0.9696 7.6371 0
M  V30 94 O 12.0109 0.7861 8.9806 0
M  V30 95 C 10.7028 0.5517 9.2604 0
M  V30 96 C 10.1521 0.2928 10.5047 0
M  V30 97 C 8.7843 0.1195 10.5732 0
M  V30 98 C 7.9595 0.2089 9.4386 0
M  V30 99 C 6.5042 0.1060 9.5735 0
M  V30 100 C 5.6895 -0.3298 8.5196 0
M  V30 101 C 4.3184 -0.3380 8.6693 0
M  V30 102 N 3.7210 0.0323 9.8057 0
M  V30 103 C 4.4768 0.4180 10.8342 0
M  V30 104 C 5.8539 0.4802 10.7557 0
M  V30 105 C 8.5319 0.4342 8.1873 0
M  V30 106 C 9.9043 0.5928 8.0981 0
M  V30 107 C 10.8252 0.8462 7.0196 0
M  V30 108 C 10.7084 0.9409 5.6432 0
M  V30 109 C 10.6058 1.5808 2.7464 0
M  V30 110 H 9.6578 1.7803 0.8198 0
M  V30 111 H 13.5832 0.5090 0.6334 0
M  V30 112 H 13.7890 0.5047 3.0816 0
M  V30 113 H 13.9693 1.5948 4.9537 0
M  V30 114 H 14.1831 1.3691 7.3838 0
M  V30 115 H 10.7737 0.2347 11.3838 0
M  V30 116 H 8.3539 -0.1101 11.5351 0
M  V30 117 H 6.1276 -0.6696 7.5963 0
M  V30 118 H 3.6630 -0.6496 7.8589 0
M  V30 119 H 3.9658 0.7003 11.7513 0
M  V30 120 H 6.4128 0.8407 11.6032 0
M  V30 121 H 7.9270 0.5277 7.3010 0
M  V30 122 H 9.7494 0.7860 5.1777 0
M  V30 123 H 9.7462 1.9276 3.2951 0
M  V30 124 C 10.1364 0.1418 -3.7871 0
M  V30 125 N 11.2800 0.6440 -3.3107 0
M  V30 126 C 12.2960 0.8491 -4.1482 0
M  V30 127 C 12.2098 0.5578 -5.4966 0
M  V30 128 C 11.0311 0.0110 -6.0147 0
M  V30 129 C 10.8972 -0.3453 -7.4291 0
M  V30 130 C 12.0130 -0.7931 -8.1553 0
M  V30 131 C 11.9243 -1.1662 -9.4821 0
M  V30 132 C 10.6806 -1.0879 -10.0873 0
M  V30 133 O 10.3704 -1.4283 -11.3657 0
M  V30 134 C 9.0337 -1.2255 -11.5031 0
M  V30 135 C 8.2658 -1.4700 -12.6299 0
M  V30 136 C 6.9104 -1.2182 -12.5449 0
M  V30 137 C 6.3139 -0.7354 -11.3689 0
M  V30 138 C 4.8669 -0.5128 -11.3158 0
M  V30 139 C 4.1409 -0.7380 -10.1391 0
M  V30 140 C 2.7780 -0.5294 -10.1269 0
M  V30 141 N 2.1103 -0.1212 -11.2099 0
M  V30 142 C 2.7814 0.1036 -12.3394 0
M  V30 143 C 4.1486 -0.0727 -12.4322 0
M  V30 144 C 7.0969 -0.4850 -10.2446 0
M  V30 145 C 8.4572 -0.7307 -10.3144 0
M  V30 146 C 9.5468 -0.6378 -9.3789 0
M  V30 147 C 9.6535 -0.2617 -8.0514 0
M  V30 148 C 9.9757 -0.1904 -5.1150 0
M  V30 149 H 9.3333 0.0011 -3.0652 0
M  V30 150 H 13.2092 1.2660 -3.7316 0
M  V30 151 H 13.0496 0.7656 -6.1393 0
M  V30 152 H 12.9702 -0.8836 -7.6658 0
M  V30 153 H 12.7853 -1.5149 -10.0295 0
M  V30 154 H 8.7143 -1.8502 -13.5336 0
M  V30 155 H 6.2975 -1.4349 -13.4060 0
M  V30 156 H 4.6401 -1.0983 -9.2550 0
M  V30 157 H 2.1845 -0.6976 -9.2302 0
M  V30 158 H 2.2091 0.4421 -13.1999 0
M  V30 159 H 4.6525 0.1433 -13.3602 0
M  V30 160 H 6.6683 -0.0788 -9.3434 0
M  V30 161 H 8.7896 0.1158 -7.5302 0
M  V30 162 H 9.0512 -0.6284 -5.4519 0
M  V30 163 C -2.0396 9.3133 0.2684 0
M  V30 164 N -1.4810 10.4544 -0.1428 0
M  V30 165 C -2.2686 11.4989 -0.4009 0
M  V30 166 C -3.6426 11.4355 -0.2854 0
M  V30 167 C -4.2536 10.2531 0.1497 0
M  V30 168 C -5.7105 10.1461 0.2629 0
M  V30 169 C -6.4896 11.2961 0.4796 0
M  V30 170 C -7.8690 11.2567 0.5146 0
M  V30 171 C -8.4783 10.0252 0.3404 0
M  V30 172 O -9.8123 9.7719 0.3082 0
M  V30 173 C -9.9429 8.4308 0.1383 0
M  V30 174 C -11.1255 7.7165 0.0385 0
M  V30 175 C -11.0329 6.3448 -0.0875 0
M  V30 176 C -9.7968 5.6761 -0.1073 0
M  V30 177 C -9.7496 4.2127 -0.1510 0
M  V30 178 C -8.6619 3.5203 -0.6998 0
M  V30 179 C -8.6315 2.1419 -0.6538 0
M  V30 180 N -9.6233 1.4230 -0.1207 0
M  V30 181 C -10.6831 2.0590 0.3803 0
M  V30 182 C -10.7785 3.4361 0.3954 0
M  V30 183 C -8.6139 6.4110 -0.0444 0
M  V30 184 C -8.6887 7.7888 0.0673 0
M  V30 185 C -7.7187 8.8478 0.1772 0
M  V30 186 C -6.3366 8.9081 0.1246 0
M  V30 187 C -3.4019 9.1782 0.4393 0
M  V30 188 H -1.3621 8.4857 0.4630 0
M  V30 189 H -1.7888 12.4229 -0.7154 0
M  V30 190 H -4.2320 12.2979 -0.5489 0
M  V30 191 H -6.0111 12.2484 0.6447 0
M  V30 192 H -8.4560 12.1481 0.6674 0
M  V30 193 H -12.0793 8.2185 0.0648 0
M  V30 194 H -11.9492 5.7854 -0.1919 0
M  V30 195 H -7.8550 4.0572 -1.1697 0
M  V30 196 H -7.7902 1.5805 -1.0535 0
M  V30 197 H -11.4807 1.4485 0.7966 0
M  V30 198 H -11.6380 3.8999 0.8501 0
M  V30 199 H -7.6517 5.9271 -0.0379 0
M  V30 200 H -5.7725 8.0098 -0.0619 0
M  V30 201 H -3.8020 8.2498 0.8106 0
M  V30 202 C -8.2790 -3.1572 0.4666 0
M  V30 203 N -9.4143 -2.5592 0.0931 0
M  V30 204 C -10.4673 -3.3144 -0.2215 0
M  V30 205 C -10.4173 -4.6945 -0.2033 0
M  V30 206 C -9.2382 -5.3454 0.1785 0
M  V30 207 C -9.1311 -6.8063 0.1643 0
M  V30 208 C -10.2718 -7.6068 0.3460 0
M  V30 209 C -10.2252 -8.9846 0.2662 0
M  V30 210 C -8.9968 -9.5697 0.0060 0
M  V30 211 O -8.7368 -10.8949 -0.1439 0
M  V30 212 C -7.4012 -11.0001 -0.3692 0
M  V30 213 C -6.6816 -12.1630 -0.5903 0
M  V30 214 C -5.3161 -12.0463 -0.7590 0
M  V30 215 C -4.6575 -10.8059 -0.7047 0
M  V30 216 C -3.1978 -10.7354 -0.8046 0
M  V30 217 C -2.5432 -9.5945 -1.2887 0
M  V30 218 C -1.1649 -9.5441 -1.2939 0
M  V30 219 N -0.4114 -10.5641 -0.8737 0
M  V30 220 C -1.0115 -11.6729 -0.4395 0
M  V30 221 C -2.3856 -11.7931 -0.3787 0
M  V30 222 C -5.3982 -9.6404 -0.5157 0
M  V30 223 C -6.7697 -9.7388 -0.3590 0
M  V30 224 C -7.8291 -8.7907 -0.1322 0
M  V30 225 C -7.8958 -7.4100 -0.0652 0
M  V30 226 C -8.1561 -4.5291 0.5348 0
M  V30 227 H -7.4469 -2.5021 0.7153 0
M  V30 228 H -11.3811 -2.8019 -0.5112 0
M  V30 229 H -11.2849 -5.2568 -0.5064 0
M  V30 230 H -11.2205 -7.1476 0.5753 0
M  V30 231 H -11.1093 -9.5878 0.3964 0
M  V30 232 H -7.1747 -13.1213 -0.6230 0
M  V30 233 H -4.7543 -12.9455 -0.9574 0
M  V30 234 H -3.1098 -8.7611 -1.6686 0
M  V30 235 H -0.6316 -8.6628 -1.6438 0
M  V30 236 H -0.3734 -12.4916 -0.1162 0
M  V30 237 H -2.8188 -12.6957 0.0196 0
M  V30 238 H -4.9223 -8.6765 -0.4474 0
M  V30 239 H -7.0062 -6.8260 -0.2312 0
M  V30 240 H -7.2323 -4.9657 0.8751 0
M  V30 241 C -8.1844 0.0963 2.4618 0
M  V30 242 N -9.3115 -0.4182 1.9603 0
M  V30 243 C -10.3239 -0.6870 2.7847 0
M  V30 244 C -10.2532 -0.4439 4.1431 0
M  V30 245 C -9.0941 0.1196 4.6871 0
M  V30 246 C -8.9851 0.4374 6.1129 0
M  V30 247 C -10.1193 0.8490 6.8319 0
M  V30 248 C -10.0572 1.1909 8.1686 0
M  V30 249 C -8.8220 1.1161 8.7913 0
M  V30 250 O -8.5373 1.4317 10.0820 0
M  V30 251 C -7.2001 1.2454 10.2363 0
M  V30 252 C -6.4531 1.4775 11.3796 0
M  V30 253 C -5.0927 1.2489 11.3103 0
M  V30 254 C -4.4710 0.7980 10.1347 0
M  V30 255 C -3.0200 0.6009 10.0962 0
M  V30 256 C -2.2887 0.8402 8.9251 0
M  V30 257 C -0.9232 0.6532 8.9223 0
M  V30 258 N -0.2555 0.2570 10.0102 0
M  V30 259 C -0.9301 0.0222 11.1351 0
M  V30 260 C -2.3014 0.1734 11.2174 0
M  V30 261 C -5.2338 0.5579 8.9941 0
M  V30 262 C -6.5981 0.7846 9.0466 0
M  V30 263 C -7.6707 0.6988 8.0909 0
M  V30 264 C -7.7502 0.3565 6.7523 0
M  V30 265 C -8.0389 0.3805 3.8030 0
M  V30 266 H -7.3839 0.2887 1.7495 0
M  V30 267 H -11.2221 -1.1160 2.3474 0
M  V30 268 H -11.0892 -0.6991 4.7735 0
M  V30 269 H -11.0698 0.9367 6.3292 0
M  V30 270 H -10.9316 1.5138 8.7104 0
M  V30 271 H -6.9210 1.8323 12.2839 0
M  V30 272 H -4.4968 1.4588 12.1849 0
M  V30 273 H -2.7866 1.1939 8.0377 0
M  V30 274 H -0.3274 0.8288 8.0279 0
M  V30 275 H -0.3584 -0.3042 12.0000 0
M  V30 276 H -2.8072 -0.0524 12.1419 0
M  V30 277 H -4.7872 0.1742 8.0918 0
M  V30 278 H -6.8727 0.0068 6.2341 0
M  V30 279 H -7.1282 0.8297 4.1625 0
M  V30 280 C -8.6951 -1.0921 -2.7607 0
M  V30 281 N -9.7147 -0.6796 -2.0020 0
M  V30 282 C -10.8485 -0.3033 -2.5948 0
M  V30 283 C -10.9958 -0.2936 -3.9678 0
M  V30 284 C -9.9389 -0.7106 -4.7854 0
M  V30 285 C -10.0342 -0.6593 -6.2462 0
M  V30 286 C -11.2796 -0.7718 -6.8874 0
M  V30 287 C -11.4171 -0.6517 -8.2564 0
M  V30 288 C -10.2699 -0.4203 -8.9978 0
M  V30 289 O -10.1844 -0.2382 -10.3417 0
M  V30 290 C -8.8666 -0.0582 -10.6213 0
M  V30 291 C -8.2990 0.1740 -11.8635 0
M  V30 292 C -6.9242 0.2917 -11.9259 0
M  V30 293 C -6.1095 0.1756 -10.7868 0
M  V30 294 C -4.6501 0.2232 -10.9029 0
M  V30 295 C -3.8403 0.6392 -9.8371 0
M  V30 296 C -2.4677 0.5874 -9.9570 0
M  V30 297 N -1.8635 0.1762 -11.0757 0
M  V30 298 C -2.6127 -0.1885 -12.1165 0
M  V30 299 C -3.9930 -0.1899 -12.0677 0
M  V30 300 C -6.6962 -0.0267 -9.5389 0
M  V30 301 C -8.0732 -0.1317 -9.4576 0
M  V30 302 C -9.0033 -0.3502 -8.3814 0
M  V30 303 C -8.8840 -0.4582 -7.0073 0
M  V30 304 C -8.7712 -1.1355 -4.1370 0
M  V30 305 H -7.7921 -1.3932 -2.2340 0
M  V30 306 H -11.6658 0.0149 -1.9524 0
M  V30 307 H -11.9190 0.0592 -4.3969 0
M  V30 308 H -12.1660 -0.9781 -6.3082 0
M  V30 309 H -12.3798 -0.7296 -8.7356 0
M  V30 310 H -8.9125 0.2542 -12.7465 0
M  V30 311 H -6.4792 0.4983 -12.8866 0
M  V30 312 H -4.2833 1.0102 -8.9283 0
M  V30 313 H -1.8173 0.8800 -9.1355 0
M  V30 314 H -2.0946 -0.5048 -13.0183 0
M  V30 315 H -4.5504 -0.5343 -12.9230 0
M  V30 316 H -6.1009 -0.1442 -8.6491 0
M  V30 317 H -7.9172 -0.3439 -6.5467 0
M  V30 318 H -7.9362 -1.5077 -4.7063 0
M  V30 319 C 1.0156 9.6101 2.2909 0
M  V30 320 N 0.6479 10.7432 1.6826 0
M  V30 321 C 0.5435 11.8555 2.4066 0
M  V30 322 C 0.8154 11.8820 3.7628 0
M  V30 323 C 1.2492 10.7203 4.4111 0
M  V30 324 C 1.6199 10.6958 5.8278 0
M  V30 325 C 2.0965 11.8538 6.4658 0
M  V30 326 C 2.5086 11.8536 7.7845 0
M  V30 327 C 2.4560 10.6527 8.4736 0
M  V30 328 O 2.8590 10.4169 9.7499 0
M  V30 329 C 2.6834 9.0861 9.9686 0
M  V30 330 C 3.0090 8.3760 11.1128 0
M  V30 331 C 2.7967 7.0106 11.0995 0
M  V30 332 C 2.2704 6.3478 9.9790 0
M  V30 333 C 2.1140 4.8912 9.9828 0
M  V30 334 C 2.2937 4.1455 8.8101 0
M  V30 335 C 2.1481 2.7751 8.8422 0
M  V30 336 N 1.8481 2.1171 9.9658 0
M  V30 337 C 1.6730 2.8057 11.0934 0
M  V30 338 C 1.7895 4.1819 11.1434 0
M  V30 339 C 1.9238 7.0753 8.8431 0
M  V30 340 C 2.1334 8.4428 8.8405 0
M  V30 341 C 1.9782 9.4789 7.8551 0
M  V30 342 C 1.5459 9.5008 6.5420 0
M  V30 343 C 1.3360 9.5598 3.6283 0
M  V30 344 H 1.0512 8.7163 1.6680 0
M  V30 345 H 0.2302 12.7582 1.8911 0
M  V30 346 H 0.6858 12.8031 4.3067 0
M  V30 347 H 2.1799 12.7762 5.9130 0
M  V30 348 H 2.8758 12.7492 8.2597 0
M  V30 349 H 3.4269 8.8733 11.9733 0
M  V30 350 H 3.0830 6.4434 11.9715 0
M  V30 351 H 2.5702 4.6370 7.8923 0
M  V30 352 H 2.2804 2.1676 7.9483 0
M  V30 353 H 1.4251 2.2407 11.9885 0
M  V30 354 H 1.6155 4.6985 12.0732 0
M  V30 355 H 1.4780 6.5981 7.9863 0
M  V30 356 H 1.1404 8.6043 6.1043 0
M  V30 357 H 1.6789 8.6344 4.0589 0
M  V30 358 C 0.8088 9.3858 -2.8852 0
M  V30 359 N 0.4160 10.5173 -2.2926 0
M  V30 360 C 0.1925 11.5955 -3.0439 0
M  V30 361 C 0.3635 11.5904 -4.4143 0
M  V30 362 C 0.8131 10.4296 -5.0525 0
M  V30 363 C 1.0812 10.4019 -6.4924 0
M  V30 364 C 1.5448 11.5605 -7.1380 0
M  V30 365 C 1.8437 11.5814 -8.4858 0
M  V30 366 C 1.6736 10.4047 -9.1961 0
M  V30 367 O 1.9353 10.2032 -10.5137 0
M  V30 368 C 1.6647 8.8954 -10.7624 0
M  V30 369 C 1.8221 8.2283 -11.9661 0
M  V30 370 C 1.5156 6.8821 -11.9936 0
M  V30 371 C 1.0592 6.1977 -10.8553 0
M  V30 372 C 0.7797 4.7616 -10.9251 0
M  V30 373 C 1.0029 3.9258 -9.8230 0
M  V30 374 C 0.7481 2.5753 -9.9276 0
M  V30 375 N 0.2995 2.0197 -11.0577 0
M  V30 376 C 0.0731 2.7960 -12.1168 0
M  V30 377 C 0.2904 4.1605 -12.0895 0
M  V30 378 C 0.8953 6.8814 -9.6527 0
M  V30 379 C 1.2013 8.2305 -9.6075 0
M  V30 380 C 1.2066 9.2293 -8.5708 0
M  V30 381 C 0.9064 9.2265 -7.2192 0
M  V30 382 C 1.0205 9.3030 -4.2457 0
M  V30 383 H 0.9617 8.5286 -2.2325 0
M  V30 384 H -0.1310 12.5011 -2.5367 0
M  V30 385 H 0.1461 12.4815 -4.9801 0
M  V30 386 H 1.7084 12.4624 -6.5691 0
M  V30 387 H 2.2050 12.4738 -8.9712 0
M  V30 388 H 2.1798 8.7446 -12.8424 0
M  V30 389 H 1.6672 6.3450 -12.9169 0
M  V30 390 H 1.3979 4.3306 -8.9062 0
M  V30 391 H 0.9103 1.8996 -9.0891 0
M  V30 392 H -0.2999 2.3145 -13.0172 0
M  V30 393 H 0.0697 4.7516 -12.9632 0
M  V30 394 H 0.5099 6.3882 -8.7758 0
M  V30 395 H 0.5173 8.3346 -6.7567 0
M  V30 396 H 1.3768 8.3835 -4.6793 0
M  V30 397 C 1.0121 -9.2550 1.7807 0
M  V30 398 N 1.4873 -10.3456 1.1720 0
M  V30 399 C 1.8024 -11.4124 1.9066 0
M  V30 400 C 1.6508 -11.4331 3.2798 0
M  V30 401 C 1.1366 -10.3104 3.9370 0
M  V30 402 C 0.9261 -10.2939 5.3866 0
M  V30 403 C 0.5472 -11.4685 6.0568 0
M  V30 404 C 0.3064 -11.4924 7.4165 0
M  V30 405 C 0.4531 -10.3041 8.1132 0
M  V30 406 O 0.2402 -10.1038 9.4402 0
M  V30 407 C 0.4670 -8.7839 9.6700 0
M  V30 408 C 0.3362 -8.1138 10.8754 0
M  V30 409 C 0.5907 -6.7564 10.8815 0
M  V30 410 C 0.9710 -6.0628 9.7210 0
M  V30 411 C 1.2006 -4.6168 9.7687 0
M  V30 412 C 0.9115 -3.8007 8.6669 0
M  V30 413 C 1.1262 -2.4416 8.7479 0
M  V30 414 N 1.5949 -1.8585 9.8555 0
M  V30 415 C 1.8813 -2.6149 10.9147 0
M  V30 416 C 1.7086 -3.9860 10.9092 0
M  V30 417 C 1.1084 -6.7492 8.5165 0
M  V30 418 C 0.8523 -8.1091 8.4927 0
M  V30 419 C 0.8418 -9.1141 7.4625 0
M  V30 420 C 1.0800 -9.1068 6.0991 0
M  V30 421 C 0.8205 -9.1989 3.1449 0
M  V30 422 H 0.7743 -8.4096 1.1377 0
M  V30 423 H 2.1947 -12.2803 1.3820 0
M  V30 424 H 1.9409 -12.3104 3.8346 0
M  V30 425 H 0.4037 -12.3809 5.4992 0
M  V30 426 H 0.0066 -12.3966 7.9215 0
M  V30 427 H 0.0377 -8.6366 11.7698 0
M  V30 428 H 0.4580 -6.2193 11.8078 0
M  V30 429 H 0.4976 -4.2280 7.7689 0
M  V30 430 H 0.9143 -1.7822 7.9078 0
M  V30 431 H 2.2675 -2.1111 11.7973 0
M  V30 432 H 1.9786 -4.5591 11.7812 0
M  V30 433 H 1.4365 -6.2492 7.6205 0
M  V30 434 H 1.4068 -8.2016 5.6149 0
M  V30 435 H 0.4028 -8.3137 3.5948 0
M  V30 436 C 1.9582 -9.3589 -3.5096 0
M  V30 437 N 1.6347 -10.4525 -2.8133 0
M  V30 438 C 1.2705 -11.5525 -3.4733 0
M  V30 439 C 1.1803 -11.5907 -4.8508 0
M  V30 440 C 1.4992 -10.4539 -5.6030 0
M  V30 441 C 1.3539 -10.4350 -7.0605 0
M  V30 442 C 1.4640 -11.6219 -7.8050 0
M  V30 443 C 1.2546 -11.6577 -9.1695 0
M  V30 444 C 0.9359 -10.4662 -9.8002 0
M  V30 445 O 0.6608 -10.2855 -11.1184 0
M  V30 446 C 0.4228 -8.9578 -11.2817 0
M  V30 447 C 0.0923 -8.3079 -12.4597 0
M  V30 448 C -0.0656 -6.9369 -12.4097 0
M  V30 449 C 0.1042 -6.2061 -11.2214 0
M  V30 450 C 0.0168 -4.7439 -11.2285 0
M  V30 451 C -0.3642 -4.0200 -10.0906 0
M  V30 452 C -0.3497 -2.6411 -10.1179 0
M  V30 453 N -0.0060 -1.9524 -11.2099 0
M  V30 454 C 0.3245 -2.6195 -12.3160 0
M  V30 455 C 0.3580 -3.9990 -12.3635 0
M  V30 456 C 0.4011 -6.8768 -10.0362 0
M  V30 457 C 0.5499 -8.2523 -10.0668 0
M  V30 458 C 0.8680 -9.2537 -9.0828 0
M  V30 459 C 1.0647 -9.2376 -7.7131 0
M  V30 460 C 1.9185 -9.3238 -4.8877 0
M  V30 461 H 2.2553 -8.4874 -2.9302 0
M  V30 462 H 1.0276 -12.4321 -2.8824 0
M  V30 463 H 0.8392 -12.4926 -5.3313 0
M  V30 464 H 1.7390 -12.5418 -7.3135 0
M  V30 465 H 1.3308 -12.5768 -9.7282 0
M  V30 466 H -0.0297 -8.8570 -13.3795 0
M  V30 467 H -0.3470 -6.4281 -13.3183 0
M  V30 468 H -0.6788 -4.5342 -9.1980 0
M  V30 469 H -0.6195 -2.0538 -9.2426 0
M  V30 470 H 0.5854 -2.0326 -13.1932 0
M  V30 471 H 0.6723 -4.4885 -13.2705 0
M  V30 472 H 0.5586 -6.3442 -9.1133 0
M  V30 473 H 0.9510 -8.3142 -7.1707 0
M  V30 474 H 2.2203 -8.4303 -5.4077 0
M  V30 END ATOM
M  V30 BEGIN BOND
M  V30 1 2 7 8
M  V30 2 1 8 9
M  V30 3 2 9 10
M  V30 4 1 10 11
M  V30 5 1 11 12
M  V30 6 2 12 13
M  V30 7 1 13 14
M  V30 8 2 14 15
M  V30 9 1 15 16
M  V30 10 1 16 17
M  V30 11 2 17 18
M  V30 12 1 18 19
M  V30 13 2 19 20
M  V30 14 1 20 21
M  V30 15 2 21 22
M  V30 16 1 22 23
M  V30 17 2 23 24
M  V30 18 1 24 25
M  V30 19 2 25 26
M  V30 20 1 20 27
M  V30 21 2 27 28
M  V30 22 1 28 29
M  V30 23 2 29 30
M  V30 24 2 11 31
M  V30 25 1 31 7
M  V30 26 1 30 12
M  V30 27 1 29 15
M  V30 28 1 28 17
M  V30 29 1 26 21
M  V30 30 1 7 32
M  V30 31 1 9 33
M  V30 32 1 10 34
M  V30 33 1 13 35
M  V30 34 1 14 36
M  V30 35 1 18 37
M  V30 36 1 19 38
M  V30 37 1 22 39
M  V30 38 1 23 40
M  V30 39 1 25 41
M  V30 40 1 26 42
M  V30 41 1 27 43
M  V30 42 1 30 44
M  V30 43 1 31 45
M  V30 44 2 46 47
M  V30 45 1 47 48
M  V30 46 2 48 49
M  V30 47 1 49 50
M  V30 48 1 50 51
M  V30 49 2 51 52
M  V30 50 1 52 53
M  V30 51 2 53 54
M  V30 52 1 54 55
M  V30 53 1 55 56
M  V30 54 2 56 57
M  V30 55 1 57 58
M  V30 56 2 58 59
M  V30 57 1 59 60
M  V30 58 2 60 61
M  V30 59 1 61 62
M  V30 60 2 62 63
M  V30 61 1 63 64
M  V30 62 2 64 65
M  V30 63 1 59 66
M  V30 64 2 66 67
M  V30 65 1 67 68
M  V30 66 2 68 69
M  V30 67 2 50 70
M  V30 68 1 70 46
M  V30 69 1 69 51
M  V30 70 1 68 54
M  V30 71 1 67 56
M  V30 72 1 65 60
M  V30 73 1 46 71
M  V30 74 1 48 72
M  V30 75 1 49 73
M  V30 76 1 52 74
M  V30 77 1 53 75
M  V30 78 1 57 76
M  V30 79 1 58 77
M  V30 80 1 61 78
M  V30 81 1 62 79
M  V30 82 1 64 80
M  V30 83 1 65 81
M  V30 84 1 66 82
M  V30 85 1 69 83
M  V30 86 1 70 84
M  V30 87 2 85 86
M  V30 88 1 86 87
M  V30 89 2 87 88
M  V30 90 1 88 89
M  V30 91 1 89 90
M  V30 92 2 90 91
M  V30 93 1 91 92
M  V30 94 2 92 93
M  V30 95 1 93 94
M  V30 96 1 94 95
M  V30 97 2 95 96
M  V30 98 1 96 97
M  V30 99 2 97 98
M  V30 100 1 98 99
M  V30 101 2 99 100
M  V30 102 1 100 101
M  V30 103 2 101 102
M  V30 104 1 102 103
M  V30 105 2 103 104
M  V30 106 1 98 105
M  V30 107 2 105 106
M  V30 108 1 106 107
M  V30 109 2 107 108
M  V30 110 2 89 109
M  V30 111 1 109 85
M  V30 112 1 108 90
M  V30 113 1 107 93
M  V30 114 1 106 95
M  V30 115 1 104 99
M  V30 116 1 85 110
M  V30 117 1 87 111
M  V30 118 1 88 112
M  V30 119 1 91 113
M  V30 120 1 92 114
M  V30 121 1 96 115
M  V30 122 1 97 116
M  V30 123 1 100 117
M  V30 124 1 101 118
M  V30 125 1 103 119
M  V30 126 1 104 120
M  V30 127 1 105 121
M  V30 128 1 108 122
M  V30 129 1 109 123
M  V30 130 2 124 125
M  V30 131 1 125 126
M  V30 132 2 126 127
M  V30 133 1 127 128
M  V30 134 1 128 129
M  V30 135 2 129 130
M  V30 136 1 130 131
M  V30 137 2 131 132
M  V30 138 1 132 133
M  V30 139 1 133 134
M  V30 140 2 134 135
M  V30 141 1 135 136
M  V30 142 2 136 137
M  V30 143 1 137 138
M  V30 144 2 138 139
M  V30 145 1 139 140
M  V30 146 2 140 141
M  V30 147 1 141 142
M  V30 148 2 142 143
M  V30 149 1 137 144
M  V30 150 2 144 145
M  V30 151 1 145 146
M  V30 152 2 146 147
M  V30 153 2 128 148
M  V30 154 1 148 124
M  V30 155 1 147 129
M  V30 156 1 146 132
M  V30 157 1 145 134
M  V30 158 1 143 138
M  V30 159 1 124 149
M  V30 160 1 126 150
M  V30 161 1 127 151
M  V30 162 1 130 152
M  V30 163 1 131 153
M  V30 164 1 135 154
M  V30 165 1 136 155
M  V30 166 1 139 156
M  V30 167 1 140 157
M  V30 168 1 142 158
M  V30 169 1 143 159
M  V30 170 1 144 160
M  V30 171 1 147 161
M  V30 172 1 148 162
M  V30 173 2 163 164
M  V30 174 1 164 165
M  V30 175 2 165 166
M  V30 176 1 166 167
M  V30 177 1 167 168
M  V30 178 2 168 169
M  V30 179 1 169 170
M  V30 180 2 170 171
M  V30 181 1 171 172
M  V30 182 1 172 173
M  V30 183 2 173 174
M  V30 184 1 174 175
M  V30 185 2 175 176
M  V30 186 1 176 177
M  V30 187 2 177 178
M  V30 188 1 178 179
M  V30 189 2 179 180
M  V30 190 1 180 181
M  V30 191 2 181 182
M  V30 192 1 176 183
M  V30 193 2 183 184
M  V30 194 1 184 185
M  V30 195 2 185 186
M  V30 196 2 167 187
M  V30 197 1 187 163
M  V30 198 1 186 168
M  V30 199 1 185 171
M  V30 200 1 184 173
M  V30 201 1 182 177
M  V30 202 1 163 188
M  V30 203 1 165 189
M  V30 204 1 166 190
M  V30 205 1 169 191
M  V30 206 1 170 192
M  V30 207 1 174 193
M  V30 208 1 175 194
M  V30 209 1 178 195
M  V30 210 1 179 196
M  V30 211 1 181 197
M  V30 212 1 182 198
M  V30 213 1 183 199
M  V30 214 1 186 200
M  V30 215 1 187 201
M  V30 216 2 202 203
M  V30 217 1 203 204
M  V30 218 2 204 205
M  V30 219 1 205 206
M  V30 220 1 206 207
M  V30 221 2 207 208
M  V30 222 1 208 209
M  V30 223 2 209 210
M  V30 224 1 210 211
M  V30 225 1 211 212
M  V30 226 2 212 213
M  V30 227 1 213 214
M  V30 228 2 214 215
M  V30 229 1 215 216
M  V30 230 2 216 217
M  V30 231 1 217 218
M  V30 232 2 218 219
M  V30 233 1 219 220
M  V30 234 2 220 221
M  V30 235 1 215 222
M  V30 236 2 222 223
M  V30 237 1 223 224
M  V30 238 2 224 225
M  V30 239 2 206 226
M  V30 240 1 226 202
M  V30 241 1 225 207
M  V30 242 1 224 210
M  V30 243 1 223 212
M  V30 244 1 221 216
M  V30 245 1 202 227
M  V30 246 1 204 228
M  V30 247 1 205 229
M  V30 248 1 208 230
M  V30 249 1 209 231
M  V30 250 1 213 232
M  V30 251 1 214 233
M  V30 252 1 217 234
M  V30 253 1 218 235
M  V30 254 1 220 236
M  V30 255 1 221 237
M  V30 256 1 222 238
M  V30 257 1 225 239
M  V30 258 1 226 240
M  V30 259 2 241 242
M  V30 260 1 242 243
M  V30 261 2 243 244
M  V30 262 1 244 245
M  V30 263 1 245 246
M  V30 264 2 246 247
M  V30 265 1 247 248
M  V30 266 2 248 249
M  V30 267 1 249 250
M  V30 268 1 250 251
M  V30 269 2 251 252
M  V30 270 1 252 253
M  V30 271 2 253 254
M  V30 272 1 254 255
M  V30 273 2 255 256
M  V30 274 1 256 257
M  V30 275 2 257 258
M  V30 276 1 258 259
M  V30 277 2 259 260
M  V30 278 1 254 261
M  V30 279 2 261 262
M  V30 280 1 262 263
M  V30 281 2 263 264
M  V30 282 2 245 265
M  V30 283 1 265 241
M  V30 284 1 264 246
M  V30 285 1 263 249
M  V30 286 1 262 251
M  V30 287 1 260 255
M  V30 288 1 241 266
M  V30 289 1 243 267
M  V30 290 1 244 268
M  V30 291 1 247 269
M  V30 292 1 248 270
M  V30 293 1 252 271
M  V30 294 1 253 272
M  V30 295 1 256 273
M  V30 296 1 257 274
M  V30 297 1 259 275
M  V30 298 1 260 276
M  V30 299 1 261 277
M  V30 300 1 264 278
M  V30 301 1 265 279
M  V30 302 2 280 281
M  V30 303 1 281 282
M  V30 304 2 282 283
M  V30 305 1 283 284
M  V30 306 1 284 285
M  V30 307 2 285 286
M  V30 308 1 286 287
M  V30 309 2 287 288
M  V30 310 1 288 289
M  V30 311 1 289 290
M  V30 312 2 290 291
M  V30 313 1 291 292
M  V30 314 2 292 293
M  V30 315 1 293 294
M  V30 316 2 294 295
M  V30 317 1 295 296
M  V30 318 2 296 297
M  V30 319 1 297 298
M  V30 320 2 298 299
M  V30 321 1 293 300
M  V30 322 2 300 301
M  V30 323 1 301 302
M  V30 324 2 302 303
M  V30 325 2 284 304
M  V30 326 1 304 280
M  V30 327 1 303 285
M  V30 328 1 302 288
M  V30 329 1 301 290
M  V30 330 1 299 294
M  V30 331 1 280 305
M  V30 332 1 282 306
M  V30 333 1 283 307
M  V30 334 1 286 308
M  V30 335 1 287 309
M  V30 336 1 291 310
M  V30 337 1 292 311
M  V30 338 1 295 312
M  V30 339 1 296 313
M  V30 340 1 298 314
M  V30 341 1 299 315
M  V30 342 1 300 316
M  V30 343 1 303 317
M  V30 344 1 304 318
M  V30 345 2 319 320
M  V30 346 1 320 321
M  V30 347 2 321 322
M  V30 348 1 322 323
M  V30 349 1 323 324
M  V30 350 2 324 325
M  V30 351 1 325 326
M  V30 352 2 326 327
M  V30 353 1 327 328
M  V30 354 1 328 329
M  V30 355 2 329 330
M  V30 356 1 330 331
M  V30 357 2 331 332
M  V30 358 1 332 333
M  V30 359 2 333 334
M  V30 360 1 334 335
M  V30 361 2 335 336
M  V30 362 1 336 337
M  V30 363 2 337 338
M  V30 364 1 332 339
M  V30 365 2 339 340
M  V30 366 1 340 341
M  V30 367 2 341 342
M  V30 368 2 323 343
M  V30 369 1 343 319
M  V30 370 1 342 324
M  V30 371 1 341 327
M  V30 372 1 340 329
M  V30 373 1 338 333
M  V30 374 1 319 344
M  V30 375 1 321 345
M  V30 376 1 322 346
M  V30 377 1 325 347
M  V30 378 1 326 348
M  V30 379 1 330 349
M  V30 380 1 331 350
M  V30 381 1 334 351
M  V30 382 1 335 352
M  V30 383 1 337 353
M  V30 384 1 338 354
M  V30 385 1 339 355
M  V30 386 1 342 356
M  V30 387 1 343 357
M  V30 388 2 358 359
M  V30 389 1 359 360
M  V30 390 2 360 361
M  V30 391 1 361 362
M  V30 392 1 362 363
M  V30 393 2 363 364
M  V30 394 1 364 365
M  V30 395 2 365 366
M  V30 396 1 366 367
M  V30 397 1 367 368
M  V30 398 2 368 369
M  V30 399 1 369 370
M  V30 400 2 370 371
M  V30 401 1 371 372
M  V30 402 2 372 373
M  V30 403 1 373 374
M  V30 404 2 374 375
M  V30 405 1 375 376
M  V30 406 2 376 377
M  V30 407 1 371 378
M  V30 408 2 378 379
M  V30 409 1 379 380
M  V30 410 2 380 381
M  V30 411 2 362 382
M  V30 412 1 382 358
M  V30 413 1 381 363
M  V30 414 1 380 366
M  V30 415 1 379 368
M  V30 416 1 377 372
M  V30 417 1 358 383
M  V30 418 1 360 384
M  V30 419 1 361 385
M  V30 420 1 364 386
M  V30 421 1 365 387
M  V30 422 1 369 388
M  V30 423 1 370 389
M  V30 424 1 373 390
M  V30 425 1 374 391
M  V30 426 1 376 392
M  V30 427 1 377 393
M  V30 428 1 378 394
M  V30 429 1 381 395
M  V30 430 1 382 396
M  V30 431 2 397 398
M  V30 432 1 398 399
M  V30 433 2 399 400
M  V30 434 1 400 401
M  V30 435 1 401 402
M  V30 436 2 402 403
M  V30 437 1 403 404
M  V30 438 2 404 405
M  V30 439 1 405 406
M  V30 440 1 406 407
M  V30 441 2 407 408
M  V30 442 1 408 409
M  V30 443 2 409 410
M  V30 444 1 410 411
M  V30 445 2 411 412
M  V30 446 1 412 413
M  V30 447 2 413 414
M  V30 448 1 414 415
M  V30 449 2 415 416
M  V30 450 1 410 417
M  V30 451 2 417 418
M  V30 452 1 418 419
M  V30 453 2 419 420
M  V30 454 2 401 421
M  V30 455 1 421 397
M  V30 456 1 420 402
M  V30 457 1 419 405
M  V30 458 1 418 407
M  V30 459 1 416 411
M  V30 460 1 397 422
M  V30 461 1 399 423
M  V30 462 1 400 424
M  V30 463 1 403 425
M  V30 464 1 404 426
M  V30 465 1 408 427
M  V30 466 1 409 428
M  V30 467 1 412 429
M  V30 468 1 413 430
M  V30 469 1 415 431
M  V30 470 1 416 432
M  V30 471 1 417 433
M  V30 472 1 420 434
M  V30 473 1 421 435
M  V30 474 2 436 437
M  V30 475 1 437 438
M  V30 476 2 438 439
M  V30 477 1 439 440
M  V30 478 1 440 441
M  V30 479 2 441 442
M  V30 480 1 442 443
M  V30 481 2 443 444
M  V30 482 1 444 445
M  V30 483 1 445 446
M  V30 484 2 446 447
M  V30 485 1 447 448
M  V30 486 2 448 449
M  V30 487 1 449 450
M  V30 488 2 450 451
M  V30 489 1 451 452
M  V30 490 2 452 453
M  V30 491 1 453 454
M  V30 492 2 454 455
M  V30 493 1 449 456
M  V30 494 2 456 457
M  V30 495 1 457 458
M  V30 496 2 458 459
M  V30 497 2 440 460
M  V30 498 1 460 436
M  V30 499 1 459 441
M  V30 500 1 458 444
M  V30 501 1 457 446
M  V30 502 1 455 450
M  V30 503 1 436 461
M  V30 504 1 438 462
M  V30 505 1 439 463
M  V30 506 1 442 464
M  V30 507 1 443 465
M  V30 508 1 447 466
M  V30 509 1 448 467
M  V30 510 1 451 468
M  V30 511 1 452 469
M  V30 512 1 454 470
M  V30 513 1 455 471
M  V30 514 1 456 472
M  V30 515 1 459 473
M  V30 516 1 460 474
M  V30 517 9 8 1
M  V30 518 9 47 1
M  V30 519 9 86 1
M  V30 520 9 125 1
M  V30 521 9 24 2
M  V30 522 9 164 2
M  V30 523 9 320 2
M  V30 524 9 359 2
M  V30 525 9 180 3
M  V30 526 9 203 3
M  V30 527 9 242 3
M  V30 528 9 281 3
M  V30 529 9 63 4
M  V30 530 9 219 4
M  V30 531 9 398 4
M  V30 532 9 437 4
M  V30 533 9 102 5
M  V30 534 9 258 5
M  V30 535 9 336 5
M  V30 536 9 414 5
M  V30 537 9 141 6
M  V30 538 9 297 6
M  V30 539 9 375 6
M  V30 540 9 453 6
M  V30 END BOND
M  V30 END CTAB
M  END

$$$$
