
     RDKit          3D

  0  0  0  0  0  0  0  0  0  0999 V3000
M  V30 BEGIN CTAB
M  V30 COUNTS 366 408 0 0 0
M  V30 BEGIN ATOM
M  V30 1 Pd 9.0636 1.1714 -2.2989 0 CHG=2
M  V30 2 Pd 0.0187 9.5221 -1.8490 0 CHG=2
M  V30 3 Pd -8.3999 0.7754 0.2415 0 CHG=2
M  V30 4 Pd 0.6559 -7.8861 -0.1792 0 CHG=2
M  V30 5 Pd 1.5879 1.5438 7.6937 0 CHG=2
M  V30 6 Pd -0.9011 -0.2179 -9.6921 0 CHG=2
M  V30 7 C 8.4333 9.5955 -2.9115 0
M  V30 8 C 7.1255 9.9106 -2.5834 0
M  V30 9 C 6.1877 8.8939 -2.3983 0
M  V30 10 C 6.6013 7.5710 -2.5348 0
M  V30 11 C 7.9159 7.2440 -2.8596 0
M  V30 12 C 8.8330 8.2776 -3.0553 0
M  V30 13 C 8.2957 5.8282 -2.9418 0
M  V30 14 C 7.3510 4.8468 -3.2721 0
M  V30 15 C 7.6878 3.5147 -3.1758 0
M  V30 16 N 8.9107 3.1064 -2.8164 0
M  V30 17 C 9.8480 4.0227 -2.5799 0
M  V30 18 C 9.5807 5.3811 -2.6223 0
M  V30 19 C 4.7746 9.1696 -2.1107 0
M  V30 20 C 3.9856 8.2458 -1.4117 0
M  V30 21 C 2.6287 8.4550 -1.2980 0
M  V30 22 N 2.0248 9.5386 -1.7989 0
M  V30 23 C 2.7671 10.4674 -2.3995 0
M  V30 24 C 4.1316 10.3175 -2.5820 0
M  V30 25 H 9.1515 10.3888 -3.0584 0
M  V30 26 H 6.8542 10.9470 -2.4530 0
M  V30 27 H 5.8850 6.7803 -2.3864 0
M  V30 28 H 9.8526 8.0688 -3.3410 0
M  V30 29 H 6.3630 5.1234 -3.6011 0
M  V30 30 H 6.9549 2.7369 -3.3836 0
M  V30 31 H 10.8419 3.6692 -2.3246 0
M  V30 32 H 10.3637 6.0784 -2.3724 0
M  V30 33 H 4.4303 7.3744 -0.9604 0
M  V30 34 H 1.9901 7.7298 -0.7971 0
M  V30 35 H 2.2599 11.3530 -2.7698 0
M  V30 36 H 4.6773 11.0770 -3.1179 0
M  V30 37 C 9.0737 -6.8688 0.4797 0
M  V30 38 C 7.7697 -7.3342 0.4486 0
M  V30 39 C 6.7496 -6.5187 -0.0415 0
M  V30 40 C 7.0708 -5.2447 -0.5033 0
M  V30 41 C 8.3756 -4.7606 -0.4485 0
M  V30 42 C 9.3823 -5.5910 0.0438 0
M  V30 43 C 8.6367 -3.3791 -0.8691 0
M  V30 44 C 7.6610 -2.3940 -0.6643 0
M  V30 45 C 7.8883 -1.1088 -1.0995 0
M  V30 46 N 9.0289 -0.7461 -1.6999 0
M  V30 47 C 9.9828 -1.6570 -1.8756 0
M  V30 48 C 9.8247 -2.9774 -1.4823 0
M  V30 49 C 5.3446 -6.9427 -0.0477 0
M  V30 50 C 4.3301 -5.9967 0.1563 0
M  V30 51 C 3.0123 -6.3893 0.1080 0
M  V30 52 N 2.6516 -7.6621 -0.1065 0
M  V30 53 C 3.5975 -8.5820 -0.2733 0
M  V30 54 C 4.9474 -8.2643 -0.2571 0
M  V30 55 H 9.8582 -7.5060 0.8606 0
M  V30 56 H 7.5534 -8.3205 0.8300 0
M  V30 57 H 6.3043 -4.6416 -0.9634 0
M  V30 58 H 10.4011 -5.2417 0.1145 0
M  V30 59 H 6.7437 -2.6332 -0.1530 0
M  V30 60 H 7.1370 -0.3297 -0.9668 0
M  V30 61 H 10.9013 -1.3350 -2.3553 0
M  V30 62 H 10.6159 -3.6846 -1.6728 0
M  V30 63 H 4.5771 -4.9699 0.3681 0
M  V30 64 H 2.2016 -5.6699 0.2457 0
M  V30 65 H 3.2779 -9.6056 -0.4373 0
M  V30 66 H 5.6757 -9.0411 -0.4260 0
M  V30 67 C 9.6136 3.6539 5.8222 0
M  V30 68 C 8.3929 3.3867 6.4193 0
M  V30 69 C 7.3804 2.7616 5.6907 0
M  V30 70 C 7.6277 2.4104 4.3656 0
M  V30 71 C 8.8410 2.7067 3.7500 0
M  V30 72 C 9.8427 3.3270 4.4959 0
M  V30 73 C 9.0035 2.3950 2.3250 0
M  V30 74 C 7.9038 2.5024 1.4624 0
M  V30 75 C 8.0425 2.1613 0.1366 0
M  V30 76 N 9.2066 1.7423 -0.3764 0
M  V30 77 C 10.2723 1.6668 0.4162 0
M  V30 78 C 10.2127 1.9793 1.7659 0
M  V30 79 C 6.0520 2.5032 6.2584 0
M  V30 80 C 4.9229 2.5266 5.4277 0
M  V30 81 C 3.6836 2.2424 5.9523 0
M  V30 82 N 3.4989 1.9693 7.2510 0
M  V30 83 C 4.5510 1.9720 8.0649 0
M  V30 84 C 5.8369 2.2232 7.6092 0
M  V30 85 H 10.3925 4.1359 6.3944 0
M  V30 86 H 8.2312 3.6901 7.4423 0
M  V30 87 H 6.8868 1.8493 3.8187 0
M  V30 88 H 10.7898 3.5816 4.0451 0
M  V30 89 H 6.9586 2.8663 1.8291 0
M  V30 90 H 7.1998 2.2226 -0.5546 0
M  V30 91 H 11.2049 1.3359 -0.0291 0
M  V30 92 H 11.0970 1.8763 2.3741 0
M  V30 93 H 5.0161 2.7822 4.3857 0
M  V30 94 H 2.7952 2.2292 5.3184 0
M  V30 95 H 4.3750 1.7562 9.1133 0
M  V30 96 H 6.6599 2.1815 8.3043 0
M  V30 97 C 7.4756 -1.6392 -10.1694 0
M  V30 98 C 6.1176 -1.5040 -10.4053 0
M  V30 99 C 5.2975 -0.9288 -9.4352 0
M  V30 100 C 5.8700 -0.4823 -8.2471 0
M  V30 101 C 7.2303 -0.6406 -7.9915 0
M  V30 102 C 8.0337 -1.2235 -8.9720 0
M  V30 103 C 7.7607 -0.2309 -6.6859 0
M  V30 104 C 6.9416 -0.2948 -5.5499 0
M  V30 105 C 7.4261 0.1291 -4.3344 0
M  V30 106 N 8.6782 0.5798 -4.1779 0
M  V30 107 C 9.4841 0.6205 -5.2354 0
M  V30 108 C 9.0635 0.2355 -6.5000 0
M  V30 109 C 3.8437 -0.8176 -9.6028 0
M  V30 110 C 3.0041 -0.9732 -8.4911 0
M  V30 111 C 1.6448 -0.8181 -8.6373 0
M  V30 112 N 1.0796 -0.5389 -9.8190 0
M  V30 113 C 1.8539 -0.4222 -10.8944 0
M  V30 114 C 3.2332 -0.5505 -10.8290 0
M  V30 115 H 8.1056 -2.0873 -10.9237 0
M  V30 116 H 5.7031 -1.8716 -11.3318 0
M  V30 117 H 5.2547 0.0449 -7.5356 0
M  V30 118 H 9.0880 -1.3795 -8.8020 0
M  V30 119 H 5.9418 -0.6891 -5.6183 0
M  V30 120 H 6.7971 0.1125 -3.4426 0
M  V30 121 H 10.4955 0.9815 -5.0821 0
M  V30 122 H 9.7462 0.3183 -7.3303 0
M  V30 123 H 3.4169 -1.2299 -7.5297 0
M  V30 124 H 0.9688 -0.9204 -7.7863 0
M  V30 125 H 1.3678 -0.2076 -11.8404 0
M  V30 126 H 3.8215 -0.4203 -11.7231 0
M  V30 127 C -8.3857 9.1859 -0.7583 0
M  V30 128 C -8.6897 7.8936 -0.3645 0
M  V30 129 C -7.6988 6.9109 -0.3678 0
M  V30 130 C -6.4094 7.2647 -0.7585 0
M  V30 131 C -6.0919 8.5642 -1.1461 0
M  V30 132 C -7.1022 9.5270 -1.1500 0
M  V30 133 C -4.7007 8.8821 -1.4913 0
M  V30 134 C -3.8421 7.9022 -2.0080 0
M  V30 135 C -2.5032 8.1839 -2.1691 0
M  V30 136 N -1.9829 9.3837 -1.8872 0
M  V30 137 C -2.7946 10.3532 -1.4685 0
M  V30 138 C -4.1459 10.1422 -1.2510 0
M  V30 139 C -7.9755 5.5126 -0.0160 0
M  V30 140 C -6.9642 4.6825 0.4869 0
M  V30 141 C -7.2030 3.3355 0.6473 0
M  V30 142 N -8.3909 2.7792 0.3814 0
M  V30 143 C -9.3907 3.5638 -0.0172 0
M  V30 144 C -9.2227 4.9213 -0.2351 0
M  V30 145 H -9.1605 9.9385 -0.7590 0
M  V30 146 H -9.6933 7.6695 -0.0368 0
M  V30 147 H -5.6367 6.5143 -0.7598 0
M  V30 148 H -6.9059 10.5368 -1.4764 0
M  V30 149 H -4.2193 6.9310 -2.2826 0
M  V30 150 H -1.8103 7.4250 -2.5278 0
M  V30 151 H -2.3555 11.3274 -1.2765 0
M  V30 152 H -4.7488 10.9480 -0.8651 0
M  V30 153 H -6.0009 5.0871 0.7498 0
M  V30 154 H -6.4171 2.6662 0.9931 0
M  V30 155 H -10.3548 3.0975 -0.1932 0
M  V30 156 H -10.0526 5.5002 -0.6066 0
M  V30 157 C -7.8090 -7.6259 -0.9569 0
M  V30 158 C -6.4749 -7.9812 -0.8477 0
M  V30 159 C -5.5198 -7.0155 -0.5297 0
M  V30 160 C -5.9355 -5.7035 -0.3165 0
M  V30 161 C -7.2716 -5.3345 -0.4524 0
M  V30 162 C -8.2122 -6.3142 -0.7698 0
M  V30 163 C -7.6350 -3.9208 -0.3003 0
M  V30 164 C -6.7321 -2.9247 -0.6963 0
M  V30 165 C -7.0549 -1.6001 -0.5119 0
M  V30 166 N -8.2226 -1.2134 0.0171 0
M  V30 167 C -9.1089 -2.1409 0.3702 0
M  V30 168 C -8.8529 -3.4970 0.2342 0
M  V30 169 C -4.0878 -7.3276 -0.4535 0
M  V30 170 C -3.1434 -6.3670 -0.8420 0
M  V30 171 C -1.8009 -6.6467 -0.7296 0
M  V30 172 N -1.3502 -7.8256 -0.2790 0
M  V30 173 C -2.2278 -8.7629 0.0673 0
M  V30 174 C -3.5972 -8.5527 0.0011 0
M  V30 175 H -8.5428 -8.3791 -1.2035 0
M  V30 176 H -6.1853 -9.0037 -1.0359 0
M  V30 177 H -5.2176 -4.9700 0.0145 0
M  V30 178 H -9.2532 -6.0594 -0.8980 0
M  V30 179 H -5.7966 -3.1897 -1.1597 0
M  V30 180 H -6.3612 -0.8081 -0.7960 0
M  V30 181 H -10.0515 -1.8009 0.7867 0
M  V30 182 H -9.5919 -4.2105 0.5619 0
M  V30 183 H -3.4629 -5.4202 -1.2440 0
M  V30 184 H -1.0437 -5.9099 -1.0081 0
M  V30 185 H -1.8359 -9.7105 0.4212 0
M  V30 186 H -4.2682 -9.3337 0.3206 0
M  V30 187 C -6.6663 -0.3670 8.4910 0
M  V30 188 C -5.3234 -0.0911 8.6874 0
M  V30 189 C -4.5408 0.3478 7.6200 0
M  V30 190 C -5.1361 0.5179 6.3728 0
M  V30 191 C -6.4794 0.2153 6.1615 0
M  V30 192 C -7.2449 -0.2278 7.2405 0
M  V30 193 C -7.0291 0.3299 4.8057 0
M  V30 194 C -6.1996 0.1113 3.6968 0
M  V30 195 C -6.7051 0.2600 2.4262 0
M  V30 196 N -7.9856 0.5803 2.1958 0
M  V30 197 C -8.7997 0.7622 3.2319 0
M  V30 198 C -8.3611 0.6562 4.5436 0
M  V30 199 C -3.1000 0.5943 7.7531 0
M  V30 200 C -2.2438 0.2925 6.6851 0
M  V30 201 C -0.9004 0.5711 6.7896 0
M  V30 202 N -0.3652 1.1096 7.8930 0
M  V30 203 C -1.1533 1.3712 8.9323 0
M  V30 204 C -2.5191 1.1327 8.9021 0
M  V30 205 H -7.2672 -0.7085 9.3211 0
M  V30 206 H -4.8897 -0.2450 9.6638 0
M  V30 207 H -4.5559 0.9440 5.5699 0
M  V30 208 H -8.2839 -0.4896 7.1106 0
M  V30 209 H -5.1742 -0.1889 3.8318 0
M  V30 210 H -6.0703 0.1202 1.5494 0
M  V30 211 H -9.8337 1.0128 3.0199 0
M  V30 212 H -9.0538 0.8452 5.3478 0
M  V30 213 H -2.6301 -0.1711 5.7928 0
M  V30 214 H -0.2130 0.3591 5.9686 0
M  V30 215 H -0.6906 1.7960 9.8170 0
M  V30 216 H -3.1214 1.3868 9.7595 0
M  V30 217 C -9.0707 1.6250 -8.1994 0
M  V30 218 C -7.8297 1.3379 -8.7430 0
M  V30 219 C -6.7800 0.9372 -7.9159 0
M  V30 220 C -7.0108 0.8273 -6.5465 0
M  V30 221 C -8.2466 1.1469 -5.9902 0
M  V30 222 C -9.2850 1.5404 -6.8337 0
M  V30 223 C -8.3963 1.1007 -4.5309 0
M  V30 224 C -7.3133 1.4491 -3.7119 0
M  V30 225 C -7.4362 1.3567 -2.3446 0
M  V30 226 N -8.5705 0.9594 -1.7534 0
M  V30 227 C -9.6225 0.6582 -2.5099 0
M  V30 228 C -9.5762 0.7125 -3.8948 0
M  V30 229 C -5.4326 0.6717 -8.4333 0
M  V30 230 C -4.3137 0.9318 -7.6295 0
M  V30 231 C -3.0537 0.6431 -8.0995 0
M  V30 232 N -2.8410 0.1439 -9.3246 0
M  V30 233 C -3.8850 -0.0821 -10.1173 0
M  V30 234 C -5.1887 0.1579 -9.7084 0
M  V30 235 H -9.8782 1.9321 -8.8476 0
M  V30 236 H -7.6830 1.4524 -9.8061 0
M  V30 237 H -6.2354 0.4352 -5.9079 0
M  V30 238 H -10.2513 1.8068 -6.4331 0
M  V30 239 H -6.3944 1.8043 -4.1475 0
M  V30 240 H -6.6050 1.6088 -1.6834 0
M  V30 241 H -10.5317 0.3513 -2.0035 0
M  V30 242 H -10.4465 0.4324 -4.4664 0
M  V30 243 H -4.4319 1.3719 -6.6538 0
M  V30 244 H -2.1709 0.8133 -7.4805 0
M  V30 245 H -3.6870 -0.4787 -11.1074 0
M  V30 246 H -6.0018 -0.0729 -10.3777 0
M  V30 247 C -0.7106 9.6641 6.6230 0
M  V30 248 C -0.3516 8.4148 7.1010 0
M  V30 249 C 0.0918 7.4315 6.2167 0
M  V30 250 C 0.1771 7.7354 4.8602 0
M  V30 251 C -0.2079 8.9808 4.3701 0
M  V30 252 C -0.6501 9.9510 5.2696 0
M  V30 253 C -0.1746 9.2147 2.9216 0
M  V30 254 C -0.4332 8.1569 2.0386 0
M  V30 255 C -0.3600 8.3688 0.6811 0
M  V30 256 N -0.0696 9.5681 0.1581 0
M  V30 257 C 0.1503 10.5932 0.9762 0
M  V30 258 C 0.1135 10.4578 2.3560 0
M  V30 259 C 0.4295 6.0742 6.6610 0
M  V30 260 C 0.1675 4.9830 5.8214 0
M  V30 261 C 0.5257 3.7156 6.2192 0
M  V30 262 N 1.1027 3.4718 7.4027 0
M  V30 263 C 1.3311 4.4883 8.2302 0
M  V30 264 C 1.0167 5.7972 7.8967 0
M  V30 265 H -1.0540 10.4204 7.3135 0
M  V30 266 H -0.4444 8.2075 8.1562 0
M  V30 267 H 0.6017 7.0106 4.1839 0
M  V30 268 H -0.9720 10.9208 4.9219 0
M  V30 269 H -0.7061 7.1859 2.4166 0
M  V30 270 H -0.5391 7.5581 -0.0291 0
M  V30 271 H 0.3753 11.5543 0.5262 0
M  V30 272 H 0.3274 11.3126 2.9773 0
M  V30 273 H -0.3280 5.1289 4.8762 0
M  V30 274 H 0.3479 2.8534 5.5756 0
M  V30 275 H 1.7900 4.2625 9.1872 0
M  V30 276 H 1.2480 6.5900 8.5898 0
M  V30 277 C 0.7914 8.1033 -10.1987 0
M  V30 278 C 0.5275 6.7631 -10.4277 0
M  V30 279 C 0.1514 5.9362 -9.3694 0
M  V30 280 C 0.0357 6.4853 -8.0947 0
M  V30 281 C 0.3256 7.8259 -7.8532 0
M  V30 282 C 0.7016 8.6370 -8.9240 0
M  V30 283 C 0.2661 8.3280 -6.4754 0
M  V30 284 C 0.5955 7.4792 -5.4092 0
M  V30 285 C 0.4980 7.9395 -4.1163 0
M  V30 286 N 0.1175 9.1920 -3.8288 0
M  V30 287 C -0.1713 10.0240 -4.8252 0
M  V30 288 C -0.1157 9.6316 -6.1543 0
M  V30 289 C -0.0835 4.4983 -9.5452 0
M  V30 290 C 0.2514 3.6083 -8.5156 0
M  V30 291 C -0.0105 2.2658 -8.6631 0
M  V30 292 N -0.5597 1.7603 -9.7748 0
M  V30 293 C -0.8558 2.5819 -10.7786 0
M  V30 294 C -0.6402 3.9496 -10.7018 0
M  V30 295 H 1.0831 8.7375 -11.0229 0
M  V30 296 H 0.6418 6.3664 -11.4250 0
M  V30 297 H -0.3392 5.8734 -7.2897 0
M  V30 298 H 0.9497 9.6760 -8.7695 0
M  V30 299 H 0.9410 6.4765 -5.5977 0
M  V30 300 H 0.7312 7.2939 -3.2663 0
M  V30 301 H -0.4689 11.0341 -4.5647 0
M  V30 302 H -0.3874 10.3347 -6.9252 0
M  V30 303 H 0.7282 3.9667 -7.6187 0
M  V30 304 H 0.2252 1.5568 -7.8688 0
M  V30 305 H -1.2901 2.1456 -11.6722 0
M  V30 306 H -0.9239 4.5775 -11.5312 0
M  V30 307 C 1.7043 -6.9109 8.1805 0
M  V30 308 C 1.9251 -5.5625 8.4047 0
M  V30 309 C 1.7912 -4.6492 7.3580 0
M  V30 310 C 1.4488 -5.1270 6.0951 0
M  V30 311 C 1.2350 -6.4827 5.8579 0
M  V30 312 C 1.3591 -7.3760 6.9229 0
M  V30 313 C 0.9328 -6.9251 4.4909 0
M  V30 314 C 0.2903 -6.0743 3.5812 0
M  V30 315 C 0.1657 -6.4538 2.2627 0
M  V30 316 N 0.6025 -7.6348 1.8111 0
M  V30 317 C 1.1466 -8.4910 2.6743 0
M  V30 318 C 1.3363 -8.1733 4.0088 0
M  V30 319 C 1.9562 -3.2029 7.5491 0
M  V30 320 C 2.3443 -2.3752 6.4865 0
M  V30 321 C 2.3263 -1.0071 6.6447 0
M  V30 322 N 1.9907 -0.4211 7.8003 0
M  V30 323 C 1.7000 -1.1908 8.8478 0
M  V30 324 C 1.6626 -2.5727 8.7615 0
M  V30 325 H 1.8036 -7.6098 8.9981 0
M  V30 326 H 2.2218 -5.2381 9.3903 0
M  V30 327 H 1.3478 -4.4304 5.2797 0
M  V30 328 H 1.1681 -8.4297 6.7891 0
M  V30 329 H -0.1093 -5.1270 3.9033 0
M  V30 330 H -0.2911 -5.7912 1.5298 0
M  V30 331 H 1.4646 -9.4558 2.2913 0
M  V30 332 H 1.8260 -8.8842 4.6544 0
M  V30 333 H 2.6572 -2.7980 5.5462 0
M  V30 334 H 2.5802 -0.3458 5.8179 0
M  V30 335 H 1.4653 -0.6954 9.7845 0
M  V30 336 H 1.3714 -3.1452 9.6271 0
M  V30 337 C -0.3978 -8.5973 -8.5651 0
M  V30 338 C -0.7145 -7.3358 -9.0400 0
M  V30 339 C -0.6557 -6.2330 -8.1868 0
M  V30 340 C -0.2890 -6.4360 -6.8583 0
M  V30 341 C 0.0211 -7.7026 -6.3692 0
M  V30 342 C -0.0294 -8.7886 -7.2441 0
M  V30 343 C 0.3442 -7.8539 -4.9449 0
M  V30 344 C 0.0286 -9.0135 -4.2316 0
M  V30 345 C 0.2308 -9.0569 -2.8623 0
M  V30 346 N 0.7050 -8.0150 -2.1812 0
M  V30 347 C 1.0584 -6.9129 -2.8521 0
M  V30 348 C 0.9166 -6.8012 -4.2178 0
M  V30 349 C -0.9242 -4.8653 -8.6480 0
M  V30 350 C -1.3798 -3.8817 -7.7592 0
M  V30 351 C -1.4602 -2.5708 -8.1742 0
M  V30 352 N -1.1594 -2.1917 -9.4220 0
M  V30 353 C -0.8053 -3.1227 -10.3063 0
M  V30 354 C -0.6681 -4.4567 -9.9597 0
M  V30 355 H -0.4396 -9.4442 -9.2344 0
M  V30 356 H -1.0263 -7.2271 -10.0675 0
M  V30 357 H -0.2452 -5.5917 -6.1908 0
M  V30 358 H 0.2367 -9.7809 -6.9137 0
M  V30 359 H -0.4035 -9.8678 -4.7270 0
M  V30 360 H -0.0194 -9.9517 -2.3007 0
M  V30 361 H 1.4604 -6.0916 -2.2616 0
M  V30 362 H 1.2489 -5.9061 -4.7169 0
M  V30 363 H -1.6683 -4.1403 -6.7540 0
M  V30 364 H -1.7679 -1.7851 -7.4861 0
M  V30 365 H -0.6002 -2.7982 -11.3214 0
M  V30 366 H -0.3294 -5.1602 -10.7029 0
M  V30 END ATOM
M  V30 BEGIN BOND
M  V30 1 2 7 8
M  V30 2 1 8 9
M  V30 3 2 9 10
M  V30 4 1 10 11
M  V30 5 2 11 12
M  V30 6 1 11 13
M  V30 7 2 13 14
M  V30 8 1 14 15
M  V30 9 2 15 16
M  V30 10 1 16 17
M  V30 11 2 17 18
M  V30 12 1 9 19
M  V30 13 2 19 20
M  V30 14 1 20 21
M  V30 15 2 21 22
M  V30 16 1 22 23
M  V30 17 2 23 24
M  V30 18 1 12 7
M  V30 19 1 18 13
M  V30 20 1 24 19
M  V30 21 1 7 25
M  V30 22 1 8 26
M  V30 23 1 10 27
M  V30 24 1 12 28
M  V30 25 1 14 29
M  V30 26 1 15 30
M  V30 27 1 17 31
M  V30 28 1 18 32
M  V30 29 1 20 33
M  V30 30 1 21 34
M  V30 31 1 23 35
M  V30 32 1 24 36
M  V30 33 2 37 38
M  V30 34 1 38 39
M  V30 35 2 39 40
M  V30 36 1 40 41
M  V30 37 2 41 42
M  V30 38 1 41 43
M  V30 39 2 43 44
M  V30 40 1 44 45
M  V30 41 2 45 46
M  V30 42 1 46 47
M  V30 43 2 47 48
M  V30 44 1 39 49
M  V30 45 2 49 50
M  V30 46 1 50 51
M  V30 47 2 51 52
M  V30 48 1 52 53
M  V30 49 2 53 54
M  V30 50 1 42 37
M  V30 51 1 48 43
M  V30 52 1 54 49
M  V30 53 1 37 55
M  V30 54 1 38 56
M  V30 55 1 40 57
M  V30 56 1 42 58
M  V30 57 1 44 59
M  V30 58 1 45 60
M  V30 59 1 47 61
M  V30 60 1 48 62
M  V30 61 1 50 63
M  V30 62 1 51 64
M  V30 63 1 53 65
M  V30 64 1 54 66
M  V30 65 2 67 68
M  V30 66 1 68 69
M  V30 67 2 69 70
M  V30 68 1 70 71
M  V30 69 2 71 72
M  V30 70 1 71 73
M  V30 71 2 73 74
M  V30 72 1 74 75
M  V30 73 2 75 76
M  V30 74 1 76 77
M  V30 75 2 77 78
M  V30 76 1 69 79
M  V30 77 2 79 80
M  V30 78 1 80 81
M  V30 79 2 81 82
M  V30 80 1 82 83
M  V30 81 2 83 84
M  V30 82 1 72 67
M  V30 83 1 78 73
M  V30 84 1 84 79
M  V30 85 1 67 85
M  V30 86 1 68 86
M  V30 87 1 70 87
M  V30 88 1 72 88
M  V30 89 1 74 89
M  V30 90 1 75 90
M  V30 91 1 77 91
M  V30 92 1 78 92
M  V30 93 1 80 93
M  V30 94 1 81 94
M  V30 95 1 83 95
M  V30 96 1 84 96
M  V30 97 2 97 98
M  V30 98 1 98 99
M  V30 99 2 99 100
M  V30 100 1 100 101
M  V30 101 2 101 102
M  V30 102 1 101 103
M  V30 103 2 103 104
M  V30 104 1 104 105
M  V30 105 2 105 106
M  V30 106 1 106 107
M  V30 107 2 107 108
M  V30 108 1 99 109
M  V30 109 2 109 110
M  V30 110 1 110 111
M  V30 111 2 111 112
M  V30 112 1 112 113
M  V30 113 2 113 114
M  V30 114 1 102 97
M  V30 115 1 108 103
M  V30 116 1 114 109
M  V30 117 1 97 115
M  V30 118 1 98 116
M  V30 119 1 100 117
M  V30 120 1 102 118
M  V30 121 1 104 119
M  V30 122 1 105 120
M  V30 123 1 107 121
M  V30 124 1 108 122
M  V30 125 1 110 123
M  V30 126 1 111 124
M  V30 127 1 113 125
M  V30 128 1 114 126
M  V30 129 2 127 128
M  V30 130 1 128 129
M  V30 131 2 129 130
M  V30 132 1 130 131
M  V30 133 2 131 132
M  V30 134 1 131 133
M  V30 135 2 133 134
M  V30 136 1 134 135
M  V30 137 2 135 136
M  V30 138 1 136 137
M  V30 139 2 137 138
M  V30 140 1 129 139
M  V30 141 2 139 140
M  V30 142 1 140 141
M  V30 143 2 141 142
M  V30 144 1 142 143
M  V30 145 2 143 144
M  V30 146 1 132 127
M  V30 147 1 138 133
M  V30 148 1 144 139
M  V30 149 1 127 145
M  V30 150 1 128 146
M  V30 151 1 130 147
M  V30 152 1 132 148
M  V30 153 1 134 149
M  V30 154 1 135 150
M  V30 155 1 137 151
M  V30 156 1 138 152
M  V30 157 1 140 153
M  V30 158 1 141 154
M  V30 159 1 143 155
M  V30 160 1 144 156
M  V30 161 2 157 158
M  V30 162 1 158 159
M  V30 163 2 159 160
M  V30 164 1 160 161
M  V30 165 2 161 162
M  V30 166 1 161 163
M  V30 167 2 163 164
M  V30 168 1 164 165
M  V30 169 2 165 166
M  V30 170 1 166 167
M  V30 171 2 167 168
M  V30 172 1 159 169
M  V30 173 2 169 170
M  V30 174 1 170 171
M  V30 175 2 171 172
M  V30 176 1 172 173
M  V30 177 2 173 174
M  V30 178 1 162 157
M  V30 179 1 168 163
M  V30 180 1 174 169
M  V30 181 1 157 175
M  V30 182 1 158 176
M  V30 183 1 160 177
M  V30 184 1 162 178
M  V30 185 1 164 179
M  V30 186 1 165 180
M  V30 187 1 167 181
M  V30 188 1 168 182
M  V30 189 1 170 183
M  V30 190 1 171 184
M  V30 191 1 173 185
M  V30 192 1 174 186
M  V30 193 2 187 188
M  V30 194 1 188 189
M  V30 195 2 189 190
M  V30 196 1 190 191
M  V30 197 2 191 192
M  V30 198 1 191 193
M  V30 199 2 193 194
M  V30 200 1 194 195
M  V30 201 2 195 196
M  V30 202 1 196 197
M  V30 203 2 197 198
M  V30 204 1 189 199
M  V30 205 2 199 200
M  V30 206 1 200 201
M  V30 207 2 201 202
M  V30 208 1 202 203
M  V30 209 2 203 204
M  V30 210 1 192 187
M  V30 211 1 198 193
M  V30 212 1 204 199
M  V30 213 1 187 205
M  V30 214 1 188 206
M  V30 215 1 190 207
M  V30 216 1 192 208
M  V30 217 1 194 209
M  V30 218 1 195 210
M  V30 219 1 197 211
M  V30 220 1 198 212
M  V30 221 1 200 213
M  V30 222 1 201 214
M  V30 223 1 203 215
M  V30 224 1 204 216
M  V30 225 2 217 218
M  V30 226 1 218 219
M  V30 227 2 219 220
M  V30 228 1 220 221
M  V30 229 2 221 222
M  V30 230 1 221 223
M  V30 231 2 223 224
M  V30 232 1 224 225
M  V30 233 2 225 226
M  V30 234 1 226 227
M  V30 235 2 227 228
M  V30 236 1 219 229
M  V30 237 2 229 230
M  V30 238 1 230 231
M  V30 239 2 231 232
M  V30 240 1 232 233
M  V30 241 2 233 234
M  V30 242 1 222 217
M  V30 243 1 228 223
M  V30 244 1 234 229
M  V30 245 1 217 235
M  V30 246 1 218 236
M  V30 247 1 220 237
M  V30 248 1 222 238
M  V30 249 1 224 239
M  V30 250 1 225 240
M  V30 251 1 227 241
M  V30 252 1 228 242
M  V30 253 1 230 243
M  V30 254 1 231 244
M  V30 255 1 233 245
M  V30 256 1 234 246
M  V30 257 2 247 248
M  V30 258 1 248 249
M  V30 259 2 249 250
M  V30 260 1 250 251
M  V30 261 2 251 252
M  V30 262 1 251 253
M  V30 263 2 253 254
M  V30 264 1 254 255
M  V30 265 2 255 256
M  V30 266 1 256 257
M  V30 267 2 257 258
M  V30 268 1 249 259
M  V30 269 2 259 260
M  V30 270 1 260 261
M  V30 271 2 261 262
M  V30 272 1 262 263
M  V30 273 2 263 264
M  V30 274 1 252 247
M  V30 275 1 258 253
M  V30 276 1 264 259
M  V30 277 1 247 265
M  V30 278 1 248 266
M  V30 279 1 250 267
M  V30 280 1 252 268
M  V30 281 1 254 269
M  V30 282 1 255 270
M  V30 283 1 257 271
M  V30 284 1 258 272
M  V30 285 1 260 273
M  V30 286 1 261 274
M  V30 287 1 263 275
M  V30 288 1 264 276
M  V30 289 2 277 278
M  V30 290 1 278 279
M  V30 291 2 279 280
M  V30 292 1 280 281
M  V30 293 2 281 282
M  V30 294 1 281 283
M  V30 295 2 283 284
M  V30 296 1 284 285
M  V30 297 2 285 286
M  V30 298 1 286 287
M  V30 299 2 287 288
M  V30 300 1 279 289
M  V30 301 2 289 290
M  V30 302 1 290 291
M  V30 303 2 291 292
M  V30 304 1 292 293
M  V30 305 2 293 294
M  V30 306 1 282 277
M  V30 307 1 288 283
M  V30 308 1 294 289
M  V30 309 1 277 295
M  V30 310 1 278 296
M  V30 311 1 280 297
M  V30 312 1 282 298
M  V30 313 1 284 299
M  V30 314 1 285 300
M  V30 315 1 287 301
M  V30 316 1 288 302
M  V30 317 1 290 303
M  V30 318 1 291 304
M  V30 319 1 293 305
M  V30 320 1 294 306
M  V30 321 2 307 308
M  V30 322 1 308 309
M  V30 323 2 309 310
M  V30 324 1 310 311
M  V30 325 2 311 312
M  V30 326 1 311 313
M  V30 327 2 313 314
M  V30 328 1 314 315
M  V30 329 2 315 316
M  V30 330 1 316 317
M  V30 331 2 317 318
M  V30 332 1 309 319
M  V30 333 2 319 320
M  V30 334 1 320 321
M  V30 335 2 321 322
M  V30 336 1 322 323
M  V30 337 2 323 324
M  V30 338 1 312 307
M  V30 339 1 318 313
M  V30 340 1 324 319
M  V30 341 1 307 325
M  V30 342 1 308 326
M  V30 343 1 310 327
M  V30 344 1 312 328
M  V30 345 1 314 329
M  V30 346 1 315 330
M  V30 347 1 317 331
M  V30 348 1 318 332
M  V30 349 1 320 333
M  V30 350 1 321 334
M  V30 351 1 323 335
M  V30 352 1 324 336
M  V30 353 2 337 338
M  V30 354 1 338 339
M  V30 355 2 339 340
M  V30 356 1 340 341
M  V30 357 2 341 342
M  V30 358 1 341 343
M  V30 359 2 343 344
M  V30 360 1 344 345
M  V30 361 2 345 346
M  V30 362 1 346 347
M  V30 363 2 347 348
M  V30 364 1 339 349
M  V30 365 2 349 350
M  V30 366 1 350 351
M  V30 367 2 351 352
M  V30 368 1 352 353
M  V30 369 2 353 354
M  V30 370 1 342 337
M  V30 371 1 348 343
M  V30 372 1 354 349
M  V30 373 1 337 355
M  V30 374 1 338 356
M  V30 375 1 340 357
M  V30 376 1 342 358
M  V30 377 1 344 359
M  V30 378 1 345 360
M  V30 379 1 347 361
M  V30 380 1 348 362
M  V30 381 1 350 363
M  V30 382 1 351 364
M  V30 383 1 353 365
M  V30 384 1 354 366
M  V30 385 9 16 1
M  V30 386 9 46 1
M  V30 387 9 76 1
M  V30 388 9 106 1
M  V30 389 9 22 2
M  V30 390 9 136 2
M  V30 391 9 256 2
M  V30 392 9 286 2
M  V30 393 9 142 3
M  V30 394 9 166 3
M  V30 395 9 196 3
M  V30 396 9 226 3
M  V30 397 9 52 4
M  V30 398 9 172 4
M  V30 399 9 316 4
M  V30 400 9 346 4
M  V30 401 9 82 5
M  V30 402 9 202 5
M  V30 403 9 262 5
M  V30 404 9 322 5
M  V30 405 9 112 6
M  V30 406 9 232 6
M  V30 407 9 292 6
M  V30 408 9 352 6
M  V30 END BOND
M  V30 END CTAB
M  END

$$$$
