
     RDKit          3D

  0  0  0  0  0  0  0  0  0  0999 V3000
M  V30 BEGIN CTAB
M  V30 COUNTS 206 232 0 0 0
M  V30 BEGIN ATOM
M  V30 1 Pd 0.1761 5.6631 4.7905 0 CHG=2
M  V30 2 Pd -1.5228 -7.1139 0.9614 0 CHG=2
M  V30 3 C 2.0696 1.9265 4.3993 0
M  V30 4 C 1.8447 3.1954 4.8951 0
M  V30 5 N 1.3271 4.1702 4.1484 0
M  V30 6 C 1.0573 3.9349 2.8588 0
M  V30 7 C 1.2073 2.6851 2.2970 0
M  V30 8 C 1.6937 1.6333 3.0836 0
M  V30 9 C 1.7478 0.2792 2.5813 0
M  V30 10 C 2.6482 -0.7116 2.8983 0
M  V30 11 C 2.3592 -1.9289 2.2791 0
M  V30 12 C 1.2148 -1.8920 1.5077 0
M  V30 13 S 0.5219 -0.3025 1.5060 0
M  V30 14 C 0.5488 -3.0123 0.8947 0
M  V30 15 C 1.2048 -4.2451 0.7423 0
M  V30 16 C 0.4733 -5.3600 0.4028 0
M  V30 17 N -0.8545 -5.3174 0.1968 0
M  V30 18 C -1.4634 -4.1316 0.1991 0
M  V30 19 C -0.8027 -2.9638 0.5265 0
M  V30 20 H 2.4753 1.1596 5.0379 0
M  V30 21 H 2.0650 3.4379 5.9292 0
M  V30 22 H 0.7018 4.7776 2.2626 0
M  V30 23 H 0.9452 2.5169 1.2651 0
M  V30 24 H 3.5008 -0.5570 3.5339 0
M  V30 25 H 2.9543 -2.8107 2.4260 0
M  V30 26 H 2.2646 -4.3324 0.9129 0
M  V30 27 H 0.9591 -6.3362 0.3089 0
M  V30 28 H -2.5183 -4.1272 -0.0459 0
M  V30 29 H -1.3428 -2.0303 0.5471 0
M  V30 30 C -2.5475 2.7999 3.3611 0
M  V30 31 C -1.9968 4.0444 3.5928 0
M  V30 32 N -1.3017 4.3234 4.6954 0
M  V30 33 C -1.1711 3.3839 5.6395 0
M  V30 34 C -1.6509 2.1019 5.4690 0
M  V30 35 C -2.3305 1.7749 4.2895 0
M  V30 36 C -2.7472 0.4201 4.0007 0
M  V30 37 C -3.8584 0.0091 3.3015 0
M  V30 38 C -3.9174 -1.3757 3.1349 0
M  V30 39 C -2.8345 -2.0395 3.6757 0
M  V30 40 S -1.7586 -0.9260 4.4597 0
M  V30 41 C -2.5046 -3.4323 3.5093 0
M  V30 42 C -3.4516 -4.3422 3.0091 0
M  V30 43 C -3.0418 -5.5945 2.6126 0
M  V30 44 N -1.7607 -5.9964 2.6937 0
M  V30 45 C -0.8816 -5.1963 3.2981 0
M  V30 46 C -1.2108 -3.9252 3.7274 0
M  V30 47 H -3.0900 2.6089 2.4501 0
M  V30 48 H -2.0968 4.8432 2.8653 0
M  V30 49 H -0.6562 3.6737 6.5562 0
M  V30 50 H -1.4995 1.3581 6.2342 0
M  V30 51 H -4.6164 0.6822 2.9447 0
M  V30 52 H -4.7141 -1.8614 2.6032 0
M  V30 53 H -4.4870 -4.0636 2.9084 0
M  V30 54 H -3.7600 -6.3092 2.1988 0
M  V30 55 H 0.1227 -5.5832 3.4175 0
M  V30 56 H -0.4571 -3.3014 4.1820 0
M  V30 57 C 3.4183 8.4608 4.8672 0
M  V30 58 C 2.3729 7.7188 4.3894 0
M  V30 59 N 1.7258 6.8277 5.1662 0
M  V30 60 C 2.1216 6.6192 6.4054 0
M  V30 61 C 3.2217 7.2792 6.9798 0
M  V30 62 C 3.6653 7.0233 8.3099 0
M  V30 63 C 3.0761 5.9246 9.0920 0
M  V30 64 C 2.5713 6.1447 10.3727 0
M  V30 65 C 1.9780 5.1184 11.0803 0
M  V30 66 C 1.8880 3.8380 10.5261 0
M  V30 67 C 1.2262 2.8018 11.2179 0
M  V30 68 C 0.6190 1.9189 11.7772 0
M  V30 69 C -0.1282 0.9186 12.4368 0
M  V30 70 C -0.5215 -0.2303 11.7523 0
M  V30 71 C -1.2965 -1.1633 12.4217 0
M  V30 72 C -1.9056 -2.4212 12.0668 0
M  V30 73 C -1.9424 -3.2006 10.9210 0
M  V30 74 C -2.6646 -4.3918 10.9551 0
M  V30 75 C -2.7123 -5.2497 9.8338 0
M  V30 76 C -2.7613 -6.0362 8.9170 0
M  V30 77 C -2.7675 -7.0232 7.9089 0
M  V30 78 C -3.7568 -8.0122 7.9029 0
M  V30 79 C -3.6947 -9.0543 7.0020 0
M  V30 80 C -2.6551 -9.1353 6.0735 0
M  V30 81 C -2.4788 -10.3278 5.2344 0
M  V30 82 C -2.5848 -11.5816 5.7996 0
M  V30 83 C -2.2455 -12.7402 5.0891 0
M  V30 84 C -1.7435 -12.6622 3.8156 0
M  V30 85 C -1.6445 -11.4100 3.1850 0
M  V30 86 C -1.1182 -11.2358 1.8862 0
M  V30 87 C -1.1019 -9.9966 1.3129 0
M  V30 88 N -1.6565 -8.9120 1.9146 0
M  V30 89 C -2.1164 -9.0347 3.1448 0
M  V30 90 C -2.0748 -10.2382 3.8713 0
M  V30 91 C -1.6983 -8.1160 6.0487 0
M  V30 92 C -1.7511 -7.0747 6.9509 0
M  V30 93 C -3.3403 -4.7876 12.1228 0
M  V30 94 C -3.3053 -4.0238 13.2711 0
M  V30 95 C -2.5824 -2.8425 13.2308 0
M  V30 96 O -2.4294 -1.9562 14.2529 0
M  V30 97 C -1.6587 -0.9442 13.7676 0
M  V30 98 C -1.2560 0.1862 14.4603 0
M  V30 99 C -0.4931 1.1131 13.7797 0
M  V30 100 C 2.4403 3.6026 9.2631 0
M  V30 101 C 3.0233 4.6343 8.5584 0
M  V30 102 C 4.6669 7.8102 8.8304 0
M  V30 103 C 5.2828 8.8102 8.0631 0
M  V30 104 C 4.9133 9.0308 6.7620 0
M  V30 105 C 3.8706 8.2762 6.1928 0
M  V30 106 H 3.9017 9.1937 4.2411 0
M  V30 107 H 2.0143 7.8290 3.3733 0
M  V30 108 H 1.5399 5.9161 7.0103 0
M  V30 109 H 2.6214 7.1339 10.8029 0
M  V30 110 H 1.5734 5.3010 12.0645 0
M  V30 111 H -0.2297 -0.3859 10.7267 0
M  V30 112 H -1.4225 -2.8983 10.0263 0
M  V30 113 H -4.5556 -7.9686 8.6282 0
M  V30 114 H -4.4577 -9.8182 7.0172 0
M  V30 115 H -2.8942 -11.6750 6.8296 0
M  V30 116 H -2.3432 -13.6991 5.5750 0
M  V30 117 H -1.4220 -13.5479 3.2903 0
M  V30 118 H -0.7251 -12.0880 1.3553 0
M  V30 119 H -0.6597 -9.8502 0.3349 0
M  V30 120 H -2.5713 -8.1680 3.6088 0
M  V30 121 H -0.8706 -8.1800 5.3582 0
M  V30 122 H -0.9854 -6.3147 6.9527 0
M  V30 123 H -3.8900 -5.7167 12.1179 0
M  V30 124 H -3.8167 -4.3292 14.1700 0
M  V30 125 H -1.5367 0.3320 15.4913 0
M  V30 126 H -0.1670 2.0091 14.2860 0
M  V30 127 H 2.4097 2.6041 8.8556 0
M  V30 128 H 3.4832 4.4461 7.5989 0
M  V30 129 H 5.0081 7.6384 9.8402 0
M  V30 130 H 6.0721 9.3972 8.5078 0
M  V30 131 H 5.4087 9.7818 6.1665 0
M  V30 132 C -2.5900 8.7275 6.0042 0
M  V30 133 C -1.7376 7.6621 6.1171 0
M  V30 134 N -1.0663 7.1808 5.0529 0
M  V30 135 C -1.2473 7.7152 3.8613 0
M  V30 136 C -2.1351 8.7767 3.6198 0
M  V30 137 C -2.3359 9.3314 2.3215 0
M  V30 138 C -1.6929 8.7188 1.1468 0
M  V30 139 C -0.9135 9.4829 0.2791 0
M  V30 140 C -0.2487 8.8908 -0.7765 0
M  V30 141 C -0.3575 7.5147 -0.9973 0
M  V30 142 C 0.3862 6.8835 -2.0164 0
M  V30 143 C 1.0600 6.3080 -2.8387 0
M  V30 144 C 1.8871 5.6336 -3.7633 0
M  V30 145 C 1.8246 4.2448 -3.8686 0
M  V30 146 C 2.6891 3.6109 -4.7456 0
M  V30 147 C 2.9404 2.2387 -5.1084 0
M  V30 148 C 2.4027 1.0173 -4.7362 0
M  V30 149 C 2.9197 -0.1389 -5.3186 0
M  V30 150 C 2.3748 -1.4026 -5.0022 0
M  V30 151 C 1.8977 -2.4894 -4.7718 0
M  V30 152 C 1.2838 -3.7445 -4.5798 0
M  V30 153 C 1.7785 -4.8795 -5.2309 0
M  V30 154 C 1.1085 -6.0815 -5.1413 0
M  V30 155 C -0.0625 -6.1929 -4.3892 0
M  V30 156 C -0.8755 -7.4155 -4.4244 0
M  V30 157 C -1.1463 -8.0229 -5.6328 0
M  V30 158 C -2.0641 -9.0760 -5.7371 0
M  V30 159 C -2.7679 -9.5066 -4.6418 0
M  V30 160 C -2.5062 -8.9404 -3.3823 0
M  V30 161 C -3.2002 -9.3105 -2.2086 0
M  V30 162 C -2.8590 -8.7565 -1.0081 0
M  V30 163 N -1.8055 -7.9089 -0.8786 0
M  V30 164 C -1.1622 -7.5141 -1.9588 0
M  V30 165 C -1.5069 -7.9324 -3.2568 0
M  V30 166 C -0.5249 -5.0681 -3.6989 0
M  V30 167 C 0.1352 -3.8616 -3.7916 0
M  V30 168 C 3.9652 -0.0629 -6.2549 0
M  V30 169 C 4.5059 1.1483 -6.6361 0
M  V30 170 C 3.9826 2.2937 -6.0577 0
M  V30 171 O 4.3745 3.5747 -6.3022 0
M  V30 172 C 3.5989 4.3684 -5.5129 0
M  V30 173 C 3.6545 5.7505 -5.4271 0
M  V30 174 C 2.7931 6.3706 -4.5445 0
M  V30 175 C -1.1885 6.7564 -0.1659 0
M  V30 176 C -1.8438 7.3535 0.8899 0
M  V30 177 C -3.1398 10.4412 2.2010 0
M  V30 178 C -3.7903 10.9954 3.3141 0
M  V30 179 C -3.6483 10.4483 4.5625 0
M  V30 180 C -2.8110 9.3318 4.7464 0
M  V30 181 H -3.0959 9.1173 6.8730 0
M  V30 182 H -1.5572 7.1738 7.0664 0
M  V30 183 H -0.6515 7.3194 3.0311 0
M  V30 184 H -0.8055 10.5430 0.4536 0
M  V30 185 H 0.3685 9.4873 -1.4314 0
M  V30 186 H 1.1178 3.6806 -3.2821 0
M  V30 187 H 1.5958 0.9594 -4.0239 0
M  V30 188 H 2.6747 -4.8010 -5.8279 0
M  V30 189 H 1.4941 -6.9466 -5.6599 0
M  V30 190 H -0.6751 -7.6522 -6.5305 0
M  V30 191 H -2.2448 -9.5185 -6.7049 0
M  V30 192 H -3.5211 -10.2735 -4.7327 0
M  V30 193 H -4.0023 -10.0282 -2.2719 0
M  V30 194 H -3.4073 -9.0049 -0.1051 0
M  V30 195 H -0.3098 -6.8568 -1.8331 0
M  V30 196 H -1.4459 -5.1293 -3.1385 0
M  V30 197 H -0.2499 -2.9889 -3.2876 0
M  V30 198 H 4.3452 -0.9753 -6.6891 0
M  V30 199 H 5.3030 1.2088 -7.3599 0
M  V30 200 H 4.3506 6.3141 -6.0277 0
M  V30 201 H 2.8138 7.4455 -4.4476 0
M  V30 202 H -1.3085 5.7029 -0.3647 0
M  V30 203 H -2.5123 6.7750 1.5108 0
M  V30 204 H -3.2964 10.8824 1.2281 0
M  V30 205 H -4.4220 11.8591 3.1718 0
M  V30 206 H -4.1667 10.8663 5.4114 0
M  V30 END ATOM
M  V30 BEGIN BOND
M  V30 1 2 3 4
M  V30 2 1 4 5
M  V30 3 2 5 6
M  V30 4 1 6 7
M  V30 5 2 7 8
M  V30 6 1 8 9
M  V30 7 2 9 10
M  V30 8 1 10 11
M  V30 9 2 11 12
M  V30 10 1 12 13
M  V30 11 1 12 14
M  V30 12 2 14 15
M  V30 13 1 15 16
M  V30 14 2 16 17
M  V30 15 1 17 18
M  V30 16 2 18 19
M  V30 17 1 8 3
M  V30 18 1 13 9
M  V30 19 1 19 14
M  V30 20 1 3 20
M  V30 21 1 4 21
M  V30 22 1 6 22
M  V30 23 1 7 23
M  V30 24 1 10 24
M  V30 25 1 11 25
M  V30 26 1 15 26
M  V30 27 1 16 27
M  V30 28 1 18 28
M  V30 29 1 19 29
M  V30 30 2 30 31
M  V30 31 1 31 32
M  V30 32 2 32 33
M  V30 33 1 33 34
M  V30 34 2 34 35
M  V30 35 1 35 36
M  V30 36 2 36 37
M  V30 37 1 37 38
M  V30 38 2 38 39
M  V30 39 1 39 40
M  V30 40 1 39 41
M  V30 41 2 41 42
M  V30 42 1 42 43
M  V30 43 2 43 44
M  V30 44 1 44 45
M  V30 45 2 45 46
M  V30 46 1 35 30
M  V30 47 1 40 36
M  V30 48 1 46 41
M  V30 49 1 30 47
M  V30 50 1 31 48
M  V30 51 1 33 49
M  V30 52 1 34 50
M  V30 53 1 37 51
M  V30 54 1 38 52
M  V30 55 1 42 53
M  V30 56 1 43 54
M  V30 57 1 45 55
M  V30 58 1 46 56
M  V30 59 2 57 58
M  V30 60 1 58 59
M  V30 61 2 59 60
M  V30 62 1 60 61
M  V30 63 2 61 62
M  V30 64 1 62 63
M  V30 65 2 63 64
M  V30 66 1 64 65
M  V30 67 2 65 66
M  V30 68 1 66 67
M  V30 69 3 67 68
M  V30 70 1 68 69
M  V30 71 2 69 70
M  V30 72 1 70 71
M  V30 73 1 71 72
M  V30 74 2 72 73
M  V30 75 1 73 74
M  V30 76 1 74 75
M  V30 77 3 75 76
M  V30 78 1 76 77
M  V30 79 2 77 78
M  V30 80 1 78 79
M  V30 81 2 79 80
M  V30 82 1 80 81
M  V30 83 2 81 82
M  V30 84 1 82 83
M  V30 85 2 83 84
M  V30 86 1 84 85
M  V30 87 2 85 86
M  V30 88 1 86 87
M  V30 89 2 87 88
M  V30 90 1 88 89
M  V30 91 2 89 90
M  V30 92 1 80 91
M  V30 93 2 91 92
M  V30 94 2 74 93
M  V30 95 1 93 94
M  V30 96 2 94 95
M  V30 97 1 95 96
M  V30 98 1 96 97
M  V30 99 1 97 98
M  V30 100 2 98 99
M  V30 101 1 66 100
M  V30 102 2 100 101
M  V30 103 1 62 102
M  V30 104 2 102 103
M  V30 105 1 103 104
M  V30 106 2 104 105
M  V30 107 1 105 57
M  V30 108 1 105 61
M  V30 109 1 101 63
M  V30 110 1 99 69
M  V30 111 2 97 71
M  V30 112 1 95 72
M  V30 113 1 92 77
M  V30 114 1 90 81
M  V30 115 1 90 85
M  V30 116 1 57 106
M  V30 117 1 58 107
M  V30 118 1 60 108
M  V30 119 1 64 109
M  V30 120 1 65 110
M  V30 121 1 70 111
M  V30 122 1 73 112
M  V30 123 1 78 113
M  V30 124 1 79 114
M  V30 125 1 82 115
M  V30 126 1 83 116
M  V30 127 1 84 117
M  V30 128 1 86 118
M  V30 129 1 87 119
M  V30 130 1 89 120
M  V30 131 1 91 121
M  V30 132 1 92 122
M  V30 133 1 93 123
M  V30 134 1 94 124
M  V30 135 1 98 125
M  V30 136 1 99 126
M  V30 137 1 100 127
M  V30 138 1 101 128
M  V30 139 1 102 129
M  V30 140 1 103 130
M  V30 141 1 104 131
M  V30 142 2 132 133
M  V30 143 1 133 134
M  V30 144 2 134 135
M  V30 145 1 135 136
M  V30 146 2 136 137
M  V30 147 1 137 138
M  V30 148 2 138 139
M  V30 149 1 139 140
M  V30 150 2 140 141
M  V30 151 1 141 142
M  V30 152 3 142 143
M  V30 153 1 143 144
M  V30 154 2 144 145
M  V30 155 1 145 146
M  V30 156 1 146 147
M  V30 157 2 147 148
M  V30 158 1 148 149
M  V30 159 1 149 150
M  V30 160 3 150 151
M  V30 161 1 151 152
M  V30 162 2 152 153
M  V30 163 1 153 154
M  V30 164 2 154 155
M  V30 165 1 155 156
M  V30 166 2 156 157
M  V30 167 1 157 158
M  V30 168 2 158 159
M  V30 169 1 159 160
M  V30 170 2 160 161
M  V30 171 1 161 162
M  V30 172 2 162 163
M  V30 173 1 163 164
M  V30 174 2 164 165
M  V30 175 1 155 166
M  V30 176 2 166 167
M  V30 177 2 149 168
M  V30 178 1 168 169
M  V30 179 2 169 170
M  V30 180 1 170 171
M  V30 181 1 171 172
M  V30 182 1 172 173
M  V30 183 2 173 174
M  V30 184 1 141 175
M  V30 185 2 175 176
M  V30 186 1 137 177
M  V30 187 2 177 178
M  V30 188 1 178 179
M  V30 189 2 179 180
M  V30 190 1 180 132
M  V30 191 1 180 136
M  V30 192 1 176 138
M  V30 193 1 174 144
M  V30 194 2 172 146
M  V30 195 1 170 147
M  V30 196 1 167 152
M  V30 197 1 165 156
M  V30 198 1 165 160
M  V30 199 1 132 181
M  V30 200 1 133 182
M  V30 201 1 135 183
M  V30 202 1 139 184
M  V30 203 1 140 185
M  V30 204 1 145 186
M  V30 205 1 148 187
M  V30 206 1 153 188
M  V30 207 1 154 189
M  V30 208 1 157 190
M  V30 209 1 158 191
M  V30 210 1 159 192
M  V30 211 1 161 193
M  V30 212 1 162 194
M  V30 213 1 164 195
M  V30 214 1 166 196
M  V30 215 1 167 197
M  V30 216 1 168 198
M  V30 217 1 169 199
M  V30 218 1 173 200
M  V30 219 1 174 201
M  V30 220 1 175 202
M  V30 221 1 176 203
M  V30 222 1 177 204
M  V30 223 1 178 205
M  V30 224 1 179 206
M  V30 225 9 5 1
M  V30 226 9 59 1
M  V30 227 9 32 1
M  V30 228 9 134 1
M  V30 229 9 17 2
M  V30 230 9 88 2
M  V30 231 9 44 2
M  V30 232 9 163 2
M  V30 END BOND
M  V30 END CTAB
M  END

$$$$
