
     RDKit          3D

  0  0  0  0  0  0  0  0  0  0999 V3000
M  V30 BEGIN CTAB
M  V30 COUNTS 186 208 0 0 0
M  V30 BEGIN ATOM
M  V30 1 Pd -1.8075 5.2667 2.4885 0 CHG=2
M  V30 2 Pd -0.7258 -8.2347 1.9452 0 CHG=2
M  V30 3 C -0.2773 1.3474 4.0387 0
M  V30 4 C -0.7907 2.6201 4.1558 0
M  V30 5 N -0.1682 3.7132 3.7007 0
M  V30 6 C 1.0374 3.5389 3.1528 0
M  V30 7 C 1.6325 2.3015 2.9823 0
M  V30 8 C 0.9548 1.1518 3.4034 0
M  V30 9 C 1.4446 -0.1844 3.1563 0
M  V30 10 C 2.5954 -0.5947 2.5183 0
M  V30 11 C 2.6743 -1.9804 2.3516 0
M  V30 12 C 1.5924 -2.6518 2.8779 0
M  V30 13 S 0.4703 -1.5468 3.5997 0
M  V30 14 C 1.2691 -4.0555 2.8286 0
M  V30 15 C 0.3700 -4.6221 3.7443 0
M  V30 16 C -0.0289 -5.9304 3.5852 0
M  V30 17 N 0.4010 -6.6883 2.5710 0
M  V30 18 C 1.3052 -6.1862 1.7236 0
M  V30 19 C 1.7746 -4.8931 1.8240 0
M  V30 20 H -0.8341 0.5075 4.4226 0
M  V30 21 H -1.7535 2.7646 4.6283 0
M  V30 22 H 1.5537 4.4362 2.8342 0
M  V30 23 H 2.6013 2.2357 2.5164 0
M  V30 24 H 3.3580 0.0773 2.1701 0
M  V30 25 H 3.5076 -2.4690 1.8804 0
M  V30 26 H -0.0187 -4.0370 4.5625 0
M  V30 27 H -0.7270 -6.3899 4.2805 0
M  V30 28 H 1.6495 -6.8470 0.9308 0
M  V30 29 H 2.4850 -4.5216 1.1044 0
M  V30 30 C -2.3258 1.3402 1.1953 0
M  V30 31 C -1.9607 2.6596 1.3197 0
M  V30 32 N -2.7748 3.5859 1.8434 0
M  V30 33 C -4.0087 3.2178 2.2037 0
M  V30 34 C -4.4499 1.9125 2.1152 0
M  V30 35 C -3.5866 0.9135 1.6404 0
M  V30 36 C -3.9185 -0.4863 1.6569 0
M  V30 37 C -5.0366 -1.1153 2.1692 0
M  V30 38 C -4.9501 -2.5087 2.1382 0
M  V30 39 C -3.7750 -2.9661 1.5809 0
M  V30 40 S -2.7698 -1.6528 1.0807 0
M  V30 41 C -3.2793 -4.3181 1.4644 0
M  V30 42 C -2.3285 -4.6597 0.4928 0
M  V30 43 C -1.7607 -5.9155 0.5118 0
M  V30 44 N -2.0736 -6.8244 1.4404 0
M  V30 45 C -3.0264 -6.5395 2.3336 0
M  V30 46 C -3.6624 -5.3152 2.3711 0
M  V30 47 H -1.6246 0.6353 0.7772 0
M  V30 48 H -0.9723 2.9747 1.0059 0
M  V30 49 H -4.6718 3.9879 2.5782 0
M  V30 50 H -5.4524 1.6748 2.4296 0
M  V30 51 H -5.8853 -0.5938 2.5713 0
M  V30 52 H -5.7313 -3.1560 2.4928 0
M  V30 53 H -2.0291 -3.9447 -0.2574 0
M  V30 54 H -1.0181 -6.2038 -0.2276 0
M  V30 55 H -3.2715 -7.3200 3.0511 0
M  V30 56 H -4.4052 -5.1168 3.1258 0
M  V30 57 C -4.6784 7.2716 4.5434 0
M  V30 58 C -3.9214 6.5826 3.6404 0
M  V30 59 N -3.0443 5.6154 4.0269 0
M  V30 60 C -2.9468 5.2919 5.2960 0
M  V30 61 C -3.7458 5.8743 6.2993 0
M  V30 62 C -3.6876 5.4685 7.6625 0
M  V30 63 C -2.9519 4.2686 8.0871 0
M  V30 64 C -3.1296 3.0535 7.4208 0
M  V30 65 C -2.5213 1.9026 7.8767 0
M  V30 66 C -1.7167 1.9386 9.0184 0
M  V30 67 C -1.1482 0.7544 9.5343 0
M  V30 68 C -0.6983 -0.2637 10.0049 0
M  V30 69 C -0.1998 -1.4338 10.6278 0
M  V30 70 N 0.0204 -2.5015 9.8669 0
M  V30 71 C 0.4639 -3.6104 10.4517 0
M  V30 72 C 0.7100 -4.7360 9.6281 0
M  V30 73 C 0.9492 -5.7189 8.9673 0
M  V30 74 C 1.2590 -6.8440 8.1736 0
M  V30 75 C 1.1488 -8.1373 8.6916 0
M  V30 76 C 1.4854 -9.2281 7.9156 0
M  V30 77 C 1.9317 -9.0597 6.6046 0
M  V30 78 C 2.3470 -10.2102 5.7887 0
M  V30 79 C 3.2048 -11.1595 6.2992 0
M  V30 80 C 3.7168 -12.1895 5.4975 0
M  V30 81 C 3.4078 -12.2660 4.1642 0
M  V30 82 C 2.5132 -11.3379 3.6009 0
M  V30 83 C 2.1474 -11.3466 2.2358 0
M  V30 84 C 1.2455 -10.4348 1.7627 0
M  V30 85 N 0.6313 -9.5499 2.5809 0
M  V30 86 C 0.9521 -9.5081 3.8581 0
M  V30 87 C 1.9388 -10.3300 4.4292 0
M  V30 88 C 2.0409 -7.7637 6.0920 0
M  V30 89 C 1.7080 -6.6697 6.8616 0
M  V30 90 C 0.7050 -3.7038 11.8286 0
M  V30 91 C 0.4799 -2.5847 12.6116 0
M  V30 92 C 0.0220 -1.4246 12.0116 0
M  V30 93 C -1.5185 3.1562 9.6762 0
M  V30 94 C -2.1336 4.3023 9.2170 0
M  V30 95 C -4.4015 6.1957 8.5922 0
M  V30 96 C -5.2085 7.2772 8.2180 0
M  V30 97 C -5.3348 7.6370 6.9008 0
M  V30 98 C -4.6051 6.9464 5.9182 0
M  V30 99 H -5.3364 8.0634 4.2221 0
M  V30 100 H -3.9891 6.7864 2.5662 0
M  V30 101 H -2.1940 4.5635 5.5683 0
M  V30 102 H -3.7959 3.0068 6.5725 0
M  V30 103 H -2.6823 0.9608 7.3761 0
M  V30 104 H 0.8040 -8.2781 9.7050 0
M  V30 105 H 1.3908 -10.2234 8.3234 0
M  V30 106 H 3.5221 -11.0917 7.3289 0
M  V30 107 H 4.3896 -12.9093 5.9385 0
M  V30 108 H 3.8414 -13.0306 3.5387 0
M  V30 109 H 2.5881 -12.0766 1.5757 0
M  V30 110 H 0.9692 -10.4004 0.7140 0
M  V30 111 H 0.4019 -8.8126 4.4886 0
M  V30 112 H 2.4336 -7.6172 5.0965 0
M  V30 113 H 1.8102 -5.6702 6.4689 0
M  V30 114 H 1.0626 -4.6267 12.2582 0
M  V30 115 H 0.6583 -2.6169 13.6772 0
M  V30 116 H -0.1688 -0.5326 12.5880 0
M  V30 117 H -0.8921 3.1913 10.5549 0
M  V30 118 H -1.9753 5.2369 9.7343 0
M  V30 119 H -4.3665 5.9052 9.6313 0
M  V30 120 H -5.7544 7.8123 8.9800 0
M  V30 121 H -5.9853 8.4462 6.6077 0
M  V30 122 C 0.7086 7.6110 0.9084 0
M  V30 123 C -0.1037 6.7272 1.5523 0
M  V30 124 N -0.5825 5.6114 0.9530 0
M  V30 125 C -0.2583 5.3184 -0.2815 0
M  V30 126 C 0.6240 6.1261 -1.0303 0
M  V30 127 C 1.0080 5.8103 -2.3633 0
M  V30 128 C 0.6265 4.5438 -3.0064 0
M  V30 129 C 0.8555 3.3171 -2.3794 0
M  V30 130 C 0.5498 2.1321 -3.0163 0
M  V30 131 C 0.0016 2.1461 -4.3014 0
M  V30 132 C -0.2874 0.9397 -4.9743 0
M  V30 133 C -0.5222 -0.0832 -5.5727 0
M  V30 134 C -0.7734 -1.2595 -6.3203 0
M  V30 135 N -1.0445 -2.3760 -5.6515 0
M  V30 136 C -1.2695 -3.4871 -6.3468 0
M  V30 137 C -1.5746 -4.6633 -5.6197 0
M  V30 138 C -1.8522 -5.6855 -5.0384 0
M  V30 139 C -2.1938 -6.8572 -4.3302 0
M  V30 140 C -1.9336 -8.1209 -4.8673 0
M  V30 141 C -2.2770 -9.2587 -4.1650 0
M  V30 142 C -2.8780 -9.1664 -2.9097 0
M  V30 143 C -3.2651 -10.3732 -2.1635 0
M  V30 144 C -3.9878 -11.3763 -2.7699 0
M  V30 145 C -4.4585 -12.4796 -2.0436 0
M  V30 146 C -4.2389 -12.5827 -0.6945 0
M  V30 147 C -3.4826 -11.5981 -0.0325 0
M  V30 148 C -3.2128 -11.6331 1.3544 0
M  V30 149 C -2.4447 -10.6579 1.9277 0
M  V30 150 N -1.8768 -9.6764 1.1918 0
M  V30 151 C -2.1076 -9.6098 -0.1037 0
M  V30 152 C -2.9547 -10.5044 -0.7793 0
M  V30 153 C -3.1501 -7.9002 -2.3838 0
M  V30 154 C -2.8132 -6.7598 -3.0809 0
M  V30 155 C -1.2272 -3.5340 -7.7464 0
M  V30 156 C -0.9488 -2.3653 -8.4340 0
M  V30 157 C -0.7192 -1.2023 -7.7194 0
M  V30 158 C -0.2328 3.3720 -4.9314 0
M  V30 159 C 0.0828 4.5525 -4.2919 0
M  V30 160 C 1.7809 6.7199 -3.0560 0
M  V30 161 C 2.2218 7.9101 -2.4668 0
M  V30 162 C 1.9025 8.2108 -1.1669 0
M  V30 163 C 1.0940 7.3317 -0.4277 0
M  V30 164 H 1.0614 8.5106 1.3874 0
M  V30 165 H -0.4187 6.8645 2.6120 0
M  V30 166 H -0.7042 4.4426 -0.7344 0
M  V30 167 H 1.3210 3.2970 -1.4055 0
M  V30 168 H 0.7475 1.1849 -2.5403 0
M  V30 169 H -1.4632 -8.2022 -5.8356 0
M  V30 170 H -2.0627 -10.2306 -4.5838 0
M  V30 171 H -4.2289 -11.2990 -3.8194 0
M  V30 172 H -5.0255 -13.2403 -2.5585 0
M  V30 173 H -4.6380 -13.4117 -0.1310 0
M  V30 174 H -3.6193 -12.4339 1.9513 0
M  V30 175 H -2.2402 -10.6454 2.9932 0
M  V30 176 H -1.5915 -8.8290 -0.6609 0
M  V30 177 H -3.6658 -7.8175 -1.4385 0
M  V30 178 H -3.0371 -5.7838 -2.6798 0
M  V30 179 H -1.4140 -4.4605 -8.2668 0
M  V30 180 H -0.9118 -2.3608 -9.5142 0
M  V30 181 H -0.4980 -0.2716 -8.2187 0
M  V30 182 H -0.6556 3.3888 -5.9246 0
M  V30 183 H -0.1058 5.4944 -4.7850 0
M  V30 184 H 2.0771 6.4964 -4.0697 0
M  V30 185 H 2.8325 8.5873 -3.0440 0
M  V30 186 H 2.2594 9.1182 -0.7055 0
M  V30 END ATOM
M  V30 BEGIN BOND
M  V30 1 2 3 4
M  V30 2 1 4 5
M  V30 3 2 5 6
M  V30 4 1 6 7
M  V30 5 2 7 8
M  V30 6 1 8 9
M  V30 7 2 9 10
M  V30 8 1 10 11
M  V30 9 2 11 12
M  V30 10 1 12 13
M  V30 11 1 12 14
M  V30 12 2 14 15
M  V30 13 1 15 16
M  V30 14 2 16 17
M  V30 15 1 17 18
M  V30 16 2 18 19
M  V30 17 1 8 3
M  V30 18 1 13 9
M  V30 19 1 19 14
M  V30 20 1 3 20
M  V30 21 1 4 21
M  V30 22 1 6 22
M  V30 23 1 7 23
M  V30 24 1 10 24
M  V30 25 1 11 25
M  V30 26 1 15 26
M  V30 27 1 16 27
M  V30 28 1 18 28
M  V30 29 1 19 29
M  V30 30 2 30 31
M  V30 31 1 31 32
M  V30 32 2 32 33
M  V30 33 1 33 34
M  V30 34 2 34 35
M  V30 35 1 35 36
M  V30 36 2 36 37
M  V30 37 1 37 38
M  V30 38 2 38 39
M  V30 39 1 39 40
M  V30 40 1 39 41
M  V30 41 2 41 42
M  V30 42 1 42 43
M  V30 43 2 43 44
M  V30 44 1 44 45
M  V30 45 2 45 46
M  V30 46 1 35 30
M  V30 47 1 40 36
M  V30 48 1 46 41
M  V30 49 1 30 47
M  V30 50 1 31 48
M  V30 51 1 33 49
M  V30 52 1 34 50
M  V30 53 1 37 51
M  V30 54 1 38 52
M  V30 55 1 42 53
M  V30 56 1 43 54
M  V30 57 1 45 55
M  V30 58 1 46 56
M  V30 59 2 57 58
M  V30 60 1 58 59
M  V30 61 2 59 60
M  V30 62 1 60 61
M  V30 63 2 61 62
M  V30 64 1 62 63
M  V30 65 2 63 64
M  V30 66 1 64 65
M  V30 67 2 65 66
M  V30 68 1 66 67
M  V30 69 3 67 68
M  V30 70 1 68 69
M  V30 71 2 69 70
M  V30 72 1 70 71
M  V30 73 1 71 72
M  V30 74 3 72 73
M  V30 75 1 73 74
M  V30 76 2 74 75
M  V30 77 1 75 76
M  V30 78 2 76 77
M  V30 79 1 77 78
M  V30 80 2 78 79
M  V30 81 1 79 80
M  V30 82 2 80 81
M  V30 83 1 81 82
M  V30 84 2 82 83
M  V30 85 1 83 84
M  V30 86 2 84 85
M  V30 87 1 85 86
M  V30 88 2 86 87
M  V30 89 1 77 88
M  V30 90 2 88 89
M  V30 91 2 71 90
M  V30 92 1 90 91
M  V30 93 2 91 92
M  V30 94 1 66 93
M  V30 95 2 93 94
M  V30 96 1 62 95
M  V30 97 2 95 96
M  V30 98 1 96 97
M  V30 99 2 97 98
M  V30 100 1 98 57
M  V30 101 1 98 61
M  V30 102 1 94 63
M  V30 103 1 92 69
M  V30 104 1 89 74
M  V30 105 1 87 78
M  V30 106 1 87 82
M  V30 107 1 57 99
M  V30 108 1 58 100
M  V30 109 1 60 101
M  V30 110 1 64 102
M  V30 111 1 65 103
M  V30 112 1 75 104
M  V30 113 1 76 105
M  V30 114 1 79 106
M  V30 115 1 80 107
M  V30 116 1 81 108
M  V30 117 1 83 109
M  V30 118 1 84 110
M  V30 119 1 86 111
M  V30 120 1 88 112
M  V30 121 1 89 113
M  V30 122 1 90 114
M  V30 123 1 91 115
M  V30 124 1 92 116
M  V30 125 1 93 117
M  V30 126 1 94 118
M  V30 127 1 95 119
M  V30 128 1 96 120
M  V30 129 1 97 121
M  V30 130 2 122 123
M  V30 131 1 123 124
M  V30 132 2 124 125
M  V30 133 1 125 126
M  V30 134 2 126 127
M  V30 135 1 127 128
M  V30 136 2 128 129
M  V30 137 1 129 130
M  V30 138 2 130 131
M  V30 139 1 131 132
M  V30 140 3 132 133
M  V30 141 1 133 134
M  V30 142 2 134 135
M  V30 143 1 135 136
M  V30 144 1 136 137
M  V30 145 3 137 138
M  V30 146 1 138 139
M  V30 147 2 139 140
M  V30 148 1 140 141
M  V30 149 2 141 142
M  V30 150 1 142 143
M  V30 151 2 143 144
M  V30 152 1 144 145
M  V30 153 2 145 146
M  V30 154 1 146 147
M  V30 155 2 147 148
M  V30 156 1 148 149
M  V30 157 2 149 150
M  V30 158 1 150 151
M  V30 159 2 151 152
M  V30 160 1 142 153
M  V30 161 2 153 154
M  V30 162 2 136 155
M  V30 163 1 155 156
M  V30 164 2 156 157
M  V30 165 1 131 158
M  V30 166 2 158 159
M  V30 167 1 127 160
M  V30 168 2 160 161
M  V30 169 1 161 162
M  V30 170 2 162 163
M  V30 171 1 163 122
M  V30 172 1 163 126
M  V30 173 1 159 128
M  V30 174 1 157 134
M  V30 175 1 154 139
M  V30 176 1 152 143
M  V30 177 1 152 147
M  V30 178 1 122 164
M  V30 179 1 123 165
M  V30 180 1 125 166
M  V30 181 1 129 167
M  V30 182 1 130 168
M  V30 183 1 140 169
M  V30 184 1 141 170
M  V30 185 1 144 171
M  V30 186 1 145 172
M  V30 187 1 146 173
M  V30 188 1 148 174
M  V30 189 1 149 175
M  V30 190 1 151 176
M  V30 191 1 153 177
M  V30 192 1 154 178
M  V30 193 1 155 179
M  V30 194 1 156 180
M  V30 195 1 157 181
M  V30 196 1 158 182
M  V30 197 1 159 183
M  V30 198 1 160 184
M  V30 199 1 161 185
M  V30 200 1 162 186
M  V30 201 9 5 1
M  V30 202 9 59 1
M  V30 203 9 32 1
M  V30 204 9 124 1
M  V30 205 9 17 2
M  V30 206 9 85 2
M  V30 207 9 44 2
M  V30 208 9 150 2
M  V30 END BOND
M  V30 END CTAB
M  END

$$$$
