
     RDKit          3D

  0  0  0  0  0  0  0  0  0  0999 V3000
M  V30 BEGIN CTAB
M  V30 COUNTS 182 204 0 0 0
M  V30 BEGIN ATOM
M  V30 1 Pd 2.9417 6.6855 0.4753 0 CHG=2
M  V30 2 Pd 3.2235 -6.8914 0.8719 0 CHG=2
M  V30 3 C 1.7806 2.9683 2.1550 0
M  V30 4 C 1.6571 4.2641 1.6947 0
M  V30 5 N 2.6568 5.1446 1.7691 0
M  V30 6 C 3.7996 4.7758 2.3644 0
M  V30 7 C 3.9987 3.5114 2.8698 0
M  V30 8 C 2.9859 2.5492 2.7338 0
M  V30 9 C 3.2227 1.1786 3.1103 0
M  V30 10 C 4.2290 0.6832 3.9131 0
M  V30 11 C 4.2526 -0.7099 3.9676 0
M  V30 12 C 3.2621 -1.3020 3.2125 0
M  V30 13 S 2.2673 -0.1068 2.4491 0
M  V30 14 C 3.0671 -2.7056 2.9525 0
M  V30 15 C 1.8804 -3.2042 2.3987 0
M  V30 16 C 1.8040 -4.5314 2.0267 0
M  V30 17 N 2.8333 -5.3703 2.1630 0
M  V30 18 C 3.9530 -4.9260 2.7515 0
M  V30 19 C 4.1040 -3.6250 3.1746 0
M  V30 20 H 0.9540 2.2825 2.0558 0
M  V30 21 H 0.7340 4.6113 1.2433 0
M  V30 22 H 4.5952 5.5208 2.4115 0
M  V30 23 H 4.9415 3.2592 3.3245 0
M  V30 24 H 4.9137 1.3041 4.4606 0
M  V30 25 H 4.9613 -1.2630 4.5550 0
M  V30 26 H 1.0330 -2.5547 2.2453 0
M  V30 27 H 0.8967 -4.9395 1.5948 0
M  V30 28 H 4.7706 -5.6398 2.8604 0
M  V30 29 H 5.0300 -3.3133 3.6268 0
M  V30 30 C 4.2850 2.9988 -1.0518 0
M  V30 31 C 4.3612 4.3262 -0.6802 0
M  V30 32 N 3.3314 5.1646 -0.8158 0
M  V30 33 C 2.2113 4.7197 -1.4031 0
M  V30 34 C 2.0605 3.4185 -1.8258 0
M  V30 35 C 3.0980 2.4997 -1.6045 0
M  V30 36 C 2.9035 1.0960 -1.8643 0
M  V30 37 C 1.9131 0.5036 -2.6193 0
M  V30 38 C 1.9372 -0.8895 -2.5649 0
M  V30 39 C 2.9439 -1.3845 -1.7622 0
M  V30 40 S 3.8988 -0.0988 -1.1011 0
M  V30 41 C 3.1811 -2.7551 -1.3858 0
M  V30 42 C 4.3862 -3.1737 -0.8062 0
M  V30 43 C 4.5099 -4.4695 -0.3459 0
M  V30 44 N 3.5107 -5.3505 -0.4213 0
M  V30 45 C 2.3682 -4.9821 -1.0174 0
M  V30 46 C 2.1689 -3.7177 -1.5227 0
M  V30 47 H 5.1328 2.3498 -0.8990 0
M  V30 48 H 5.2687 4.7349 -0.2492 0
M  V30 49 H 1.3932 5.4330 -1.5112 0
M  V30 50 H 1.1342 3.1063 -2.2770 0
M  V30 51 H 1.2042 1.0564 -3.2067 0
M  V30 52 H 1.2527 -1.5106 -3.1124 0
M  V30 53 H 5.2123 -2.4876 -0.7063 0
M  V30 54 H 5.4328 -4.8163 0.1062 0
M  V30 55 H 1.5729 -5.7275 -1.0652 0
M  V30 56 H 1.2263 -3.4659 -1.9781 0
M  V30 57 C 1.6776 -10.4353 2.6422 0
M  V30 58 C 1.9860 -10.3320 4.0171 0
M  V30 59 C 2.6584 -9.1525 4.4458 0
M  V30 60 C 2.9165 -8.9460 5.8313 0
M  V30 61 C 2.5278 -9.9170 6.7237 0
M  V30 62 C 1.9119 -11.1019 6.2911 0
M  V30 63 C 1.6362 -11.3111 4.9654 0
M  V30 64 C 3.4986 -7.6706 6.2921 0
M  V30 65 C 4.7586 -7.2406 5.8756 0
M  V30 66 C 5.2302 -5.9933 6.2344 0
M  V30 67 C 4.4399 -5.1421 7.0112 0
M  V30 68 C 4.8534 -3.8241 7.2959 0
M  V30 69 C 5.1749 -2.6784 7.5198 0
M  V30 70 C 5.4679 -1.3270 7.6890 0
M  V30 71 C 6.6226 -0.7310 8.1355 0
M  V30 72 C 6.5696 0.6692 8.1086 0
M  V30 73 C 5.3762 1.1583 7.6326 0
M  V30 74 C 4.9903 2.4713 7.3863 0
M  V30 75 C 4.5959 3.5808 7.1014 0
M  V30 76 C 4.0912 4.8384 6.7218 0
M  V30 77 C 4.6581 6.0350 7.1692 0
M  V30 78 C 4.1268 7.2468 6.7723 0
M  V30 79 C 3.0364 7.2956 5.9049 0
M  V30 80 C 2.4353 8.5662 5.4718 0
M  V30 81 C 2.1387 8.7782 4.0948 0
M  V30 82 C 1.3435 9.8897 3.6974 0
M  V30 83 C 0.9876 9.9696 2.3316 0
M  V30 84 C 1.4424 9.0324 1.4461 0
M  V30 85 N 2.2998 8.0487 1.8164 0
M  V30 86 C 2.6365 7.9382 3.0850 0
M  V30 87 C 0.9516 10.8323 4.6652 0
M  V30 88 C 1.3374 10.6661 5.9707 0
M  V30 89 C 2.0565 9.5318 6.3766 0
M  V30 90 C 2.4674 6.0953 5.4667 0
M  V30 91 C 2.9804 4.8837 5.8711 0
M  V30 92 S 4.2704 -0.1368 7.2479 0
M  V30 93 C 3.1998 -5.5920 7.4738 0
M  V30 94 C 2.7427 -6.8458 7.1240 0
M  V30 95 C 2.9973 -8.2022 3.4673 0
M  V30 96 N 2.7037 -8.3321 2.1899 0
M  V30 97 C 2.0294 -9.4350 1.7793 0
M  V30 98 H 1.1508 -11.3051 2.2831 0
M  V30 99 H 2.7069 -9.7728 7.7787 0
M  V30 100 H 1.6419 -11.8471 7.0239 0
M  V30 101 H 1.1431 -12.2132 4.6380 0
M  V30 102 H 5.3769 -7.8990 5.2835 0
M  V30 103 H 6.2071 -5.6660 5.9127 0
M  V30 104 H 7.4776 -1.2919 8.4691 0
M  V30 105 H 7.3808 1.3056 8.4147 0
M  V30 106 H 5.5085 6.0072 7.8338 0
M  V30 107 H 4.5712 8.1663 7.1227 0
M  V30 108 H 0.3518 10.7739 1.9974 0
M  V30 109 H 1.1506 9.0599 0.4019 0
M  V30 110 H 3.3543 7.1724 3.3552 0
M  V30 111 H 0.3507 11.6781 4.3695 0
M  V30 112 H 1.0544 11.3965 6.7134 0
M  V30 113 H 2.2795 9.3989 7.4245 0
M  V30 114 H 1.5922 6.1226 4.8346 0
M  V30 115 H 2.5253 3.9597 5.5490 0
M  V30 116 H 2.6001 -4.9494 8.1002 0
M  V30 117 H 1.7781 -7.1835 7.4721 0
M  V30 118 H 3.5203 -7.3059 3.7779 0
M  V30 119 H 1.7743 -9.4913 0.7270 0
M  V30 120 C 5.1808 -10.1751 -0.9815 0
M  V30 121 C 4.8269 -10.0952 -2.3478 0
M  V30 122 C 4.0319 -8.9841 -2.7464 0
M  V30 123 C 3.7372 -8.7722 -4.1238 0
M  V30 124 C 4.1175 -9.7377 -5.0280 0
M  V30 125 C 4.8365 -10.8717 -4.6211 0
M  V30 126 C 5.2205 -11.0378 -3.3150 0
M  V30 127 C 3.1359 -7.5020 -4.5578 0
M  V30 128 C 2.0468 -7.4539 -5.4268 0
M  V30 129 C 1.5151 -6.2426 -5.8243 0
M  V30 130 C 2.0803 -5.0455 -5.3758 0
M  V30 131 C 1.5744 -3.7884 -5.7554 0
M  V30 132 C 1.1794 -2.6793 -6.0412 0
M  V30 133 C 0.7916 -1.3668 -6.2871 0
M  V30 134 C -0.4018 -0.8795 -6.7649 0
M  V30 135 C -0.4572 0.5206 -6.7912 0
M  V30 136 C 0.6956 1.1184 -6.3421 0
M  V30 137 C 0.9859 2.4702 -6.1719 0
M  V30 138 C 1.3054 3.6165 -5.9476 0
M  V30 139 C 1.7168 4.9352 -5.6629 0
M  V30 140 C 0.9269 5.7842 -4.8834 0
M  V30 141 C 1.3968 7.0322 -4.5249 0
M  V30 142 C 2.6548 7.4651 -4.9444 0
M  V30 143 C 3.2359 8.7413 -4.4844 0
M  V30 144 C 3.4972 8.9476 -3.0996 0
M  V30 145 C 4.1692 10.1278 -2.6722 0
M  V30 146 C 4.4811 10.2310 -1.2980 0
M  V30 147 C 4.1327 9.2300 -0.4345 0
M  V30 148 N 3.4587 8.1264 -0.8437 0
M  V30 149 C 3.1621 7.9965 -2.1204 0
M  V30 150 C 4.5152 11.1077 -3.6210 0
M  V30 151 C 4.2362 10.8988 -4.9461 0
M  V30 152 C 3.6207 9.7132 -5.3774 0
M  V30 153 C 3.4102 6.6424 -5.7790 0
M  V30 154 C 2.9547 5.3880 -6.1284 0
M  V30 155 S 1.8944 -0.0699 -5.8995 0
M  V30 156 C 3.1900 -5.0900 -4.5237 0
M  V30 157 C 3.7034 -6.3013 -4.1188 0
M  V30 158 C 3.5325 -8.1442 -1.7373 0
M  V30 159 N 3.8674 -8.2545 -0.4683 0
M  V30 160 C 4.7244 -9.2380 -0.0966 0
M  V30 161 H 5.8164 -10.9792 -0.6464 0
M  V30 162 H 3.8960 -9.6049 -6.0762 0
M  V30 163 H 5.1208 -11.6021 -5.3634 0
M  V30 164 H 5.8212 -11.8834 -3.0184 0
M  V30 165 H 1.6036 -8.3738 -5.7778 0
M  V30 166 H 0.6656 -6.2153 -6.4900 0
M  V30 167 H -1.2113 -1.5171 -7.0729 0
M  V30 168 H -1.3126 1.0802 -7.1260 0
M  V30 169 H -0.0485 5.4546 -4.5593 0
M  V30 170 H 0.7786 7.6889 -3.9308 0
M  V30 171 H 5.0077 11.1013 -0.9401 0
M  V30 172 H 4.3905 9.2863 0.6172 0
M  V30 173 H 2.6394 7.0997 -2.4300 0
M  V30 174 H 5.0081 12.0103 -3.2946 0
M  V30 175 H 4.5033 11.6446 -5.6792 0
M  V30 176 H 3.4391 9.5691 -6.4320 0
M  V30 177 H 4.3731 6.9824 -6.1295 0
M  V30 178 H 3.5541 4.7470 -6.7569 0
M  V30 179 H 3.6438 -4.1657 -4.2008 0
M  V30 180 H 4.5778 -6.3279 -3.4855 0
M  V30 181 H 2.8148 -7.3785 -2.0085 0
M  V30 182 H 5.0146 -9.2655 0.9481 0
M  V30 END ATOM
M  V30 BEGIN BOND
M  V30 1 2 3 4
M  V30 2 1 4 5
M  V30 3 2 5 6
M  V30 4 1 6 7
M  V30 5 2 7 8
M  V30 6 1 8 9
M  V30 7 2 9 10
M  V30 8 1 10 11
M  V30 9 2 11 12
M  V30 10 1 12 13
M  V30 11 1 12 14
M  V30 12 2 14 15
M  V30 13 1 15 16
M  V30 14 2 16 17
M  V30 15 1 17 18
M  V30 16 2 18 19
M  V30 17 1 8 3
M  V30 18 1 13 9
M  V30 19 1 19 14
M  V30 20 1 3 20
M  V30 21 1 4 21
M  V30 22 1 6 22
M  V30 23 1 7 23
M  V30 24 1 10 24
M  V30 25 1 11 25
M  V30 26 1 15 26
M  V30 27 1 16 27
M  V30 28 1 18 28
M  V30 29 1 19 29
M  V30 30 2 30 31
M  V30 31 1 31 32
M  V30 32 2 32 33
M  V30 33 1 33 34
M  V30 34 2 34 35
M  V30 35 1 35 36
M  V30 36 2 36 37
M  V30 37 1 37 38
M  V30 38 2 38 39
M  V30 39 1 39 40
M  V30 40 1 39 41
M  V30 41 2 41 42
M  V30 42 1 42 43
M  V30 43 2 43 44
M  V30 44 1 44 45
M  V30 45 2 45 46
M  V30 46 1 35 30
M  V30 47 1 40 36
M  V30 48 1 46 41
M  V30 49 1 30 47
M  V30 50 1 31 48
M  V30 51 1 33 49
M  V30 52 1 34 50
M  V30 53 1 37 51
M  V30 54 1 38 52
M  V30 55 1 42 53
M  V30 56 1 43 54
M  V30 57 1 45 55
M  V30 58 1 46 56
M  V30 59 2 57 58
M  V30 60 1 58 59
M  V30 61 1 59 60
M  V30 62 2 60 61
M  V30 63 1 61 62
M  V30 64 2 62 63
M  V30 65 1 60 64
M  V30 66 2 64 65
M  V30 67 1 65 66
M  V30 68 2 66 67
M  V30 69 1 67 68
M  V30 70 3 68 69
M  V30 71 1 69 70
M  V30 72 2 70 71
M  V30 73 1 71 72
M  V30 74 2 72 73
M  V30 75 1 73 74
M  V30 76 3 74 75
M  V30 77 1 75 76
M  V30 78 2 76 77
M  V30 79 1 77 78
M  V30 80 2 78 79
M  V30 81 1 79 80
M  V30 82 1 80 81
M  V30 83 1 81 82
M  V30 84 2 82 83
M  V30 85 1 83 84
M  V30 86 2 84 85
M  V30 87 1 85 86
M  V30 88 1 82 87
M  V30 89 2 87 88
M  V30 90 1 88 89
M  V30 91 1 79 90
M  V30 92 2 90 91
M  V30 93 1 73 92
M  V30 94 1 67 93
M  V30 95 2 93 94
M  V30 96 2 59 95
M  V30 97 1 95 96
M  V30 98 2 96 97
M  V30 99 1 97 57
M  V30 100 1 63 58
M  V30 101 1 94 64
M  V30 102 1 92 70
M  V30 103 1 91 76
M  V30 104 2 89 80
M  V30 105 2 86 81
M  V30 106 1 57 98
M  V30 107 1 61 99
M  V30 108 1 62 100
M  V30 109 1 63 101
M  V30 110 1 65 102
M  V30 111 1 66 103
M  V30 112 1 71 104
M  V30 113 1 72 105
M  V30 114 1 77 106
M  V30 115 1 78 107
M  V30 116 1 83 108
M  V30 117 1 84 109
M  V30 118 1 86 110
M  V30 119 1 87 111
M  V30 120 1 88 112
M  V30 121 1 89 113
M  V30 122 1 90 114
M  V30 123 1 91 115
M  V30 124 1 93 116
M  V30 125 1 94 117
M  V30 126 1 95 118
M  V30 127 1 97 119
M  V30 128 2 120 121
M  V30 129 1 121 122
M  V30 130 1 122 123
M  V30 131 2 123 124
M  V30 132 1 124 125
M  V30 133 2 125 126
M  V30 134 1 123 127
M  V30 135 2 127 128
M  V30 136 1 128 129
M  V30 137 2 129 130
M  V30 138 1 130 131
M  V30 139 3 131 132
M  V30 140 1 132 133
M  V30 141 2 133 134
M  V30 142 1 134 135
M  V30 143 2 135 136
M  V30 144 1 136 137
M  V30 145 3 137 138
M  V30 146 1 138 139
M  V30 147 2 139 140
M  V30 148 1 140 141
M  V30 149 2 141 142
M  V30 150 1 142 143
M  V30 151 1 143 144
M  V30 152 1 144 145
M  V30 153 2 145 146
M  V30 154 1 146 147
M  V30 155 2 147 148
M  V30 156 1 148 149
M  V30 157 1 145 150
M  V30 158 2 150 151
M  V30 159 1 151 152
M  V30 160 1 142 153
M  V30 161 2 153 154
M  V30 162 1 136 155
M  V30 163 1 130 156
M  V30 164 2 156 157
M  V30 165 2 122 158
M  V30 166 1 158 159
M  V30 167 2 159 160
M  V30 168 1 160 120
M  V30 169 1 126 121
M  V30 170 1 157 127
M  V30 171 1 155 133
M  V30 172 1 154 139
M  V30 173 2 152 143
M  V30 174 2 149 144
M  V30 175 1 120 161
M  V30 176 1 124 162
M  V30 177 1 125 163
M  V30 178 1 126 164
M  V30 179 1 128 165
M  V30 180 1 129 166
M  V30 181 1 134 167
M  V30 182 1 135 168
M  V30 183 1 140 169
M  V30 184 1 141 170
M  V30 185 1 146 171
M  V30 186 1 147 172
M  V30 187 1 149 173
M  V30 188 1 150 174
M  V30 189 1 151 175
M  V30 190 1 152 176
M  V30 191 1 153 177
M  V30 192 1 154 178
M  V30 193 1 156 179
M  V30 194 1 157 180
M  V30 195 1 158 181
M  V30 196 1 160 182
M  V30 197 9 5 1
M  V30 198 9 85 1
M  V30 199 9 32 1
M  V30 200 9 148 1
M  V30 201 9 17 2
M  V30 202 9 96 2
M  V30 203 9 44 2
M  V30 204 9 159 2
M  V30 END BOND
M  V30 END CTAB
M  END

$$$$
