
     RDKit          3D

  0  0  0  0  0  0  0  0  0  0999 V3000
M  V30 BEGIN CTAB
M  V30 COUNTS 206 232 0 0 0
M  V30 BEGIN ATOM
M  V30 1 Pd -2.5289 7.9228 -3.1259 0 CHG=2
M  V30 2 Pd -2.0386 -6.9849 -4.0003 0 CHG=2
M  V30 3 C -1.3880 5.4340 -4.5618 0
M  V30 4 N -1.2339 6.4959 -3.7735 0
M  V30 5 C -0.0892 6.6433 -3.0868 0
M  V30 6 C 0.9511 5.7483 -3.1889 0
M  V30 7 C 0.8108 4.6319 -4.0168 0
M  V30 8 C 1.8837 3.6500 -4.1509 0
M  V30 9 C 3.2165 4.0648 -4.2827 0
M  V30 10 C 4.2465 3.1638 -4.4712 0
M  V30 11 C 3.9191 1.8188 -4.4928 0
M  V30 12 O 4.7580 0.7657 -4.6753 0
M  V30 13 C 3.9937 -0.3555 -4.6040 0
M  V30 14 C 4.4082 -1.6690 -4.7441 0
M  V30 15 C 3.4483 -2.6543 -4.6181 0
M  V30 16 C 2.1104 -2.3528 -4.3265 0
M  V30 17 C 1.1331 -3.4215 -4.1368 0
M  V30 18 C 0.1897 -3.3635 -3.1082 0
M  V30 19 C -0.7168 -4.3952 -2.9516 0
M  V30 20 N -0.7279 -5.4495 -3.7647 0
M  V30 21 C 0.1569 -5.5101 -4.7733 0
M  V30 22 C 1.1014 -4.5318 -4.9839 0
M  V30 23 C 1.6963 -1.0338 -4.2027 0
M  V30 24 C 2.6421 -0.0406 -4.3612 0
M  V30 25 C 2.5894 1.3902 -4.3107 0
M  V30 26 C 1.5621 2.2998 -4.1571 0
M  V30 27 C -0.3959 4.4821 -4.7043 0
M  V30 28 H -2.3234 5.3580 -5.1026 0
M  V30 29 H 0.0080 7.5262 -2.4518 0
M  V30 30 H 1.8521 5.8946 -2.6165 0
M  V30 31 H 3.4403 5.1199 -4.2784 0
M  V30 32 H 5.2659 3.4894 -4.5987 0
M  V30 33 H 5.4404 -1.9076 -4.9419 0
M  V30 34 H 3.7459 -3.6873 -4.7061 0
M  V30 35 H 0.1867 -2.5321 -2.4224 0
M  V30 36 H -1.4423 -4.3903 -2.1473 0
M  V30 37 H 0.1246 -6.3890 -5.4203 0
M  V30 38 H 1.7905 -4.6101 -5.8085 0
M  V30 39 H 0.6658 -0.7831 -4.0144 0
M  V30 40 H 0.5483 1.9624 -4.0212 0
M  V30 41 H -0.5422 3.6432 -5.3649 0
M  V30 42 C -3.5259 5.3276 -1.9504 0
M  V30 43 N -3.8115 6.4613 -2.5917 0
M  V30 44 C -5.0091 6.5994 -3.1719 0
M  V30 45 C -5.9627 5.6018 -3.1348 0
M  V30 46 C -5.6737 4.3931 -2.4915 0
M  V30 47 C -6.6458 3.2953 -2.4711 0
M  V30 48 C -8.0007 3.5786 -2.2405 0
M  V30 49 C -8.9561 2.5829 -2.2043 0
M  V30 50 C -8.5326 1.2842 -2.4327 0
M  V30 51 O -9.3114 0.1728 -2.4492 0
M  V30 52 C -8.4869 -0.8707 -2.7194 0
M  V30 53 C -8.8517 -2.2028 -2.8232 0
M  V30 54 C -7.8530 -3.1159 -3.0961 0
M  V30 55 C -6.5212 -2.7190 -3.2903 0
M  V30 56 C -5.5032 -3.7327 -3.5848 0
M  V30 57 C -4.5123 -3.5212 -4.5484 0
M  V30 58 C -3.5588 -4.4950 -4.7753 0
M  V30 59 N -3.5381 -5.6397 -4.0915 0
M  V30 60 C -4.4819 -5.8676 -3.1711 0
M  V30 61 C -5.4788 -4.9522 -2.8990 0
M  V30 62 C -6.1646 -1.3766 -3.1929 0
M  V30 63 C -7.1502 -0.4500 -2.8896 0
M  V30 64 C -7.1786 0.9772 -2.6879 0
M  V30 65 C -6.2274 1.9856 -2.6910 0
M  V30 66 C -4.4196 4.2760 -1.8843 0
M  V30 67 H -2.5524 5.2635 -1.4757 0
M  V30 68 H -5.2024 7.5418 -3.6879 0
M  V30 69 H -6.9113 5.7457 -3.6264 0
M  V30 70 H -8.3043 4.5964 -2.0514 0
M  V30 71 H -9.9933 2.8002 -2.0090 0
M  V30 72 H -9.8771 -2.5072 -2.6923 0
M  V30 73 H -8.1152 -4.1576 -3.1958 0
M  V30 74 H -4.4993 -2.6103 -5.1243 0
M  V30 75 H -2.7885 -4.3578 -5.5270 0
M  V30 76 H -4.4279 -6.8154 -2.6322 0
M  V30 77 H -6.2138 -5.1668 -2.1400 0
M  V30 78 H -5.1403 -1.0645 -3.3162 0
M  V30 79 H -5.1928 1.7605 -2.8932 0
M  V30 80 H -4.1544 3.3766 -1.3528 0
M  V30 81 C 0.1140 -10.6460 -3.0512 0
M  V30 82 C 1.2508 -10.2140 -2.3333 0
M  V30 83 C 1.4069 -8.8108 -2.1659 0
M  V30 84 C 2.5487 -8.2905 -1.4896 0
M  V30 85 C 3.4868 -9.1785 -1.0185 0
M  V30 86 C 3.3173 -10.5649 -1.1630 0
M  V30 87 C 2.2226 -11.0834 -1.8037 0
M  V30 88 C 2.7273 -6.8328 -1.3472 0
M  V30 89 C 3.8575 -6.2100 -1.8759 0
M  V30 90 C 3.9964 -4.8372 -1.8251 0
M  V30 91 C 3.0066 -4.0498 -1.2302 0
M  V30 92 C 3.1040 -2.6449 -1.2094 0
M  V30 93 C 3.1613 -1.4348 -1.1994 0
M  V30 94 C 3.1764 -0.0464 -1.1153 0
M  V30 95 C 4.2423 0.8134 -1.2518 0
M  V30 96 C 3.9093 2.1517 -1.0153 0
M  V30 97 C 2.5836 2.3358 -0.6956 0
M  V30 98 C 1.9334 3.5032 -0.3089 0
M  V30 99 C 1.3472 4.4754 0.1152 0
M  V30 100 C 0.6121 5.5787 0.5921 0
M  V30 101 C 1.2239 6.7961 0.9059 0
M  V30 102 C 0.4639 7.8737 1.3225 0
M  V30 103 C -0.9220 7.7690 1.4166 0
M  V30 104 C -1.7751 8.9490 1.6744 0
M  V30 105 C -2.6406 9.3823 0.6274 0
M  V30 106 C -3.5335 10.4730 0.8198 0
M  V30 107 C -4.3614 10.8232 -0.2705 0
M  V30 108 C -4.2588 10.1568 -1.4652 0
M  V30 109 N -3.3691 9.1597 -1.6538 0
M  V30 110 C -2.6043 8.7909 -0.6409 0
M  V30 111 C -3.5279 11.1358 2.0629 0
M  V30 112 C -2.6578 10.7345 3.0430 0
M  V30 113 C -1.7833 9.6486 2.8544 0
M  V30 114 C -1.5263 6.5357 1.1559 0
M  V30 115 C -0.7725 5.4519 0.7589 0
M  V30 116 S 1.7201 0.8215 -0.7147 0
M  V30 117 C 1.8986 -4.6770 -0.6494 0
M  V30 118 C 1.7629 -6.0479 -0.7110 0
M  V30 119 C 0.4341 -7.9730 -2.7322 0
M  V30 120 N -0.6101 -8.3977 -3.4193 0
M  V30 121 C -0.7669 -9.7362 -3.5690 0
M  V30 122 H -0.0493 -11.7020 -3.1974 0
M  V30 123 H 4.3645 -8.8079 -0.5103 0
M  V30 124 H 4.0696 -11.2261 -0.7600 0
M  V30 125 H 2.0990 -12.1494 -1.9157 0
M  V30 126 H 4.6202 -6.8101 -2.3495 0
M  V30 127 H 4.8703 -4.3637 -2.2461 0
M  V30 128 H 5.2344 0.4753 -1.4943 0
M  V30 129 H 4.6170 2.9602 -1.0577 0
M  V30 130 H 2.2951 6.8947 0.8155 0
M  V30 131 H 0.9430 8.8146 1.5479 0
M  V30 132 H -5.0693 11.6294 -0.1594 0
M  V30 133 H -4.8824 10.4173 -2.3098 0
M  V30 134 H -1.8921 7.9765 -0.8091 0
M  V30 135 H -4.2040 11.9603 2.2283 0
M  V30 136 H -2.6434 11.2514 3.9907 0
M  V30 137 H -1.1276 9.3552 3.6602 0
M  V30 138 H -2.5953 6.4377 1.2742 0
M  V30 139 H -1.2395 4.4971 0.5740 0
M  V30 140 H 1.1555 -4.0795 -0.1450 0
M  V30 141 H 0.9151 -6.5249 -0.2421 0
M  V30 142 H 0.5630 -6.9084 -2.6019 0
M  V30 143 H -1.6271 -10.0712 -4.1322 0
M  V30 144 C -4.4190 -10.0634 -6.1855 0
M  V30 145 C -4.0008 -9.6611 -7.4739 0
M  V30 146 C -3.1859 -8.4977 -7.5535 0
M  V30 147 C -2.7246 -8.0095 -8.8112 0
M  V30 148 C -3.0392 -8.7234 -9.9395 0
M  V30 149 C -3.8366 -9.8801 -9.8620 0
M  V30 150 C -4.3248 -10.3383 -8.6660 0
M  V30 151 C -1.9329 -6.7605 -8.8139 0
M  V30 152 C -2.5276 -5.5762 -8.3691 0
M  V30 153 C -1.7793 -4.4297 -8.2080 0
M  V30 154 C -0.4039 -4.4424 -8.4705 0
M  V30 155 C 0.3489 -3.2761 -8.2294 0
M  V30 156 C 0.9572 -2.2549 -7.9927 0
M  V30 157 C 1.5970 -1.0335 -7.8090 0
M  V30 158 C 2.9370 -0.7375 -7.9106 0
M  V30 159 C 3.2161 0.6264 -7.7710 0
M  V30 160 C 2.0934 1.3944 -7.5621 0
M  V30 161 C 1.9912 2.7779 -7.4606 0
M  V30 162 C 1.8409 3.9794 -7.4189 0
M  V30 163 C 1.6388 5.3716 -7.3528 0
M  V30 164 C 0.3573 5.8963 -7.5545 0
M  V30 165 C 0.1339 7.2521 -7.4387 0
M  V30 166 C 1.1792 8.1235 -7.1244 0
M  V30 167 C 0.9322 9.5635 -6.9183 0
M  V30 168 C 0.0158 9.9980 -5.9168 0
M  V30 169 C -0.2001 11.3858 -5.6963 0
M  V30 170 C -1.0925 11.7333 -4.6584 0
M  V30 171 C -1.6900 10.7619 -3.9026 0
M  V30 172 N -1.4728 9.4389 -4.1053 0
M  V30 173 C -0.6589 9.0915 -5.0849 0
M  V30 174 C 0.4830 12.3242 -6.4923 0
M  V30 175 C 1.3663 11.8883 -7.4449 0
M  V30 176 C 1.5999 10.5186 -7.6481 0
M  V30 177 C 2.4652 7.6042 -6.9787 0
M  V30 178 C 2.6951 6.2469 -7.0851 0
M  V30 179 S 0.6603 0.4054 -7.5077 0
M  V30 180 C 0.1805 -5.6109 -8.9682 0
M  V30 181 C -0.5800 -6.7522 -9.1457 0
M  V30 182 C -2.8091 -7.8872 -6.3514 0
M  V30 183 N -3.1896 -8.3042 -5.1563 0
M  V30 184 C -4.0075 -9.3744 -5.0729 0
M  V30 185 H -5.0572 -10.9268 -6.0822 0
M  V30 186 H -2.6909 -8.3883 -10.9048 0
M  V30 187 H -4.0730 -10.4071 -10.7741 0
M  V30 188 H -4.9480 -11.2181 -8.6246 0
M  V30 189 H -3.5862 -5.5665 -8.1556 0
M  V30 190 H -2.2441 -3.5132 -7.8793 0
M  V30 191 H 3.6869 -1.4849 -8.0989 0
M  V30 192 H 4.2035 1.0475 -7.8412 0
M  V30 193 H -0.4532 5.2319 -7.8104 0
M  V30 194 H -0.8541 7.6503 -7.6163 0
M  V30 195 H -1.2922 12.7743 -4.4592 0
M  V30 196 H -2.3601 11.0333 -3.0985 0
M  V30 197 H -0.4849 8.0394 -5.2577 0
M  V30 198 H 0.3096 13.3779 -6.3377 0
M  V30 199 H 1.8982 12.6031 -8.0544 0
M  V30 200 H 2.3054 10.2141 -8.4066 0
M  V30 201 H 3.2844 8.2723 -6.7584 0
M  V30 202 H 3.6926 5.8535 -6.9608 0
M  V30 203 H 1.2329 -5.6215 -9.2087 0
M  V30 204 H -0.1172 -7.6547 -9.5155 0
M  V30 205 H -2.1511 -7.0135 -6.4016 0
M  V30 206 H -4.3152 -9.6740 -4.0801 0
M  V30 END ATOM
M  V30 BEGIN BOND
M  V30 1 2 3 4
M  V30 2 1 4 5
M  V30 3 2 5 6
M  V30 4 1 6 7
M  V30 5 1 7 8
M  V30 6 2 8 9
M  V30 7 1 9 10
M  V30 8 2 10 11
M  V30 9 1 11 12
M  V30 10 1 12 13
M  V30 11 2 13 14
M  V30 12 1 14 15
M  V30 13 2 15 16
M  V30 14 1 16 17
M  V30 15 2 17 18
M  V30 16 1 18 19
M  V30 17 2 19 20
M  V30 18 1 20 21
M  V30 19 2 21 22
M  V30 20 1 16 23
M  V30 21 2 23 24
M  V30 22 1 24 25
M  V30 23 2 25 26
M  V30 24 2 7 27
M  V30 25 1 27 3
M  V30 26 1 26 8
M  V30 27 1 25 11
M  V30 28 1 24 13
M  V30 29 1 22 17
M  V30 30 1 3 28
M  V30 31 1 5 29
M  V30 32 1 6 30
M  V30 33 1 9 31
M  V30 34 1 10 32
M  V30 35 1 14 33
M  V30 36 1 15 34
M  V30 37 1 18 35
M  V30 38 1 19 36
M  V30 39 1 21 37
M  V30 40 1 22 38
M  V30 41 1 23 39
M  V30 42 1 26 40
M  V30 43 1 27 41
M  V30 44 2 42 43
M  V30 45 1 43 44
M  V30 46 2 44 45
M  V30 47 1 45 46
M  V30 48 1 46 47
M  V30 49 2 47 48
M  V30 50 1 48 49
M  V30 51 2 49 50
M  V30 52 1 50 51
M  V30 53 1 51 52
M  V30 54 2 52 53
M  V30 55 1 53 54
M  V30 56 2 54 55
M  V30 57 1 55 56
M  V30 58 2 56 57
M  V30 59 1 57 58
M  V30 60 2 58 59
M  V30 61 1 59 60
M  V30 62 2 60 61
M  V30 63 1 55 62
M  V30 64 2 62 63
M  V30 65 1 63 64
M  V30 66 2 64 65
M  V30 67 2 46 66
M  V30 68 1 66 42
M  V30 69 1 65 47
M  V30 70 1 64 50
M  V30 71 1 63 52
M  V30 72 1 61 56
M  V30 73 1 42 67
M  V30 74 1 44 68
M  V30 75 1 45 69
M  V30 76 1 48 70
M  V30 77 1 49 71
M  V30 78 1 53 72
M  V30 79 1 54 73
M  V30 80 1 57 74
M  V30 81 1 58 75
M  V30 82 1 60 76
M  V30 83 1 61 77
M  V30 84 1 62 78
M  V30 85 1 65 79
M  V30 86 1 66 80
M  V30 87 2 81 82
M  V30 88 1 82 83
M  V30 89 1 83 84
M  V30 90 2 84 85
M  V30 91 1 85 86
M  V30 92 2 86 87
M  V30 93 1 84 88
M  V30 94 2 88 89
M  V30 95 1 89 90
M  V30 96 2 90 91
M  V30 97 1 91 92
M  V30 98 3 92 93
M  V30 99 1 93 94
M  V30 100 2 94 95
M  V30 101 1 95 96
M  V30 102 2 96 97
M  V30 103 1 97 98
M  V30 104 3 98 99
M  V30 105 1 99 100
M  V30 106 2 100 101
M  V30 107 1 101 102
M  V30 108 2 102 103
M  V30 109 1 103 104
M  V30 110 1 104 105
M  V30 111 1 105 106
M  V30 112 2 106 107
M  V30 113 1 107 108
M  V30 114 2 108 109
M  V30 115 1 109 110
M  V30 116 1 106 111
M  V30 117 2 111 112
M  V30 118 1 112 113
M  V30 119 1 103 114
M  V30 120 2 114 115
M  V30 121 1 97 116
M  V30 122 1 91 117
M  V30 123 2 117 118
M  V30 124 2 83 119
M  V30 125 1 119 120
M  V30 126 2 120 121
M  V30 127 1 121 81
M  V30 128 1 87 82
M  V30 129 1 118 88
M  V30 130 1 116 94
M  V30 131 1 115 100
M  V30 132 2 113 104
M  V30 133 2 110 105
M  V30 134 1 81 122
M  V30 135 1 85 123
M  V30 136 1 86 124
M  V30 137 1 87 125
M  V30 138 1 89 126
M  V30 139 1 90 127
M  V30 140 1 95 128
M  V30 141 1 96 129
M  V30 142 1 101 130
M  V30 143 1 102 131
M  V30 144 1 107 132
M  V30 145 1 108 133
M  V30 146 1 110 134
M  V30 147 1 111 135
M  V30 148 1 112 136
M  V30 149 1 113 137
M  V30 150 1 114 138
M  V30 151 1 115 139
M  V30 152 1 117 140
M  V30 153 1 118 141
M  V30 154 1 119 142
M  V30 155 1 121 143
M  V30 156 2 144 145
M  V30 157 1 145 146
M  V30 158 1 146 147
M  V30 159 2 147 148
M  V30 160 1 148 149
M  V30 161 2 149 150
M  V30 162 1 147 151
M  V30 163 2 151 152
M  V30 164 1 152 153
M  V30 165 2 153 154
M  V30 166 1 154 155
M  V30 167 3 155 156
M  V30 168 1 156 157
M  V30 169 2 157 158
M  V30 170 1 158 159
M  V30 171 2 159 160
M  V30 172 1 160 161
M  V30 173 3 161 162
M  V30 174 1 162 163
M  V30 175 2 163 164
M  V30 176 1 164 165
M  V30 177 2 165 166
M  V30 178 1 166 167
M  V30 179 1 167 168
M  V30 180 1 168 169
M  V30 181 2 169 170
M  V30 182 1 170 171
M  V30 183 2 171 172
M  V30 184 1 172 173
M  V30 185 1 169 174
M  V30 186 2 174 175
M  V30 187 1 175 176
M  V30 188 1 166 177
M  V30 189 2 177 178
M  V30 190 1 160 179
M  V30 191 1 154 180
M  V30 192 2 180 181
M  V30 193 2 146 182
M  V30 194 1 182 183
M  V30 195 2 183 184
M  V30 196 1 184 144
M  V30 197 1 150 145
M  V30 198 1 181 151
M  V30 199 1 179 157
M  V30 200 1 178 163
M  V30 201 2 176 167
M  V30 202 2 173 168
M  V30 203 1 144 185
M  V30 204 1 148 186
M  V30 205 1 149 187
M  V30 206 1 150 188
M  V30 207 1 152 189
M  V30 208 1 153 190
M  V30 209 1 158 191
M  V30 210 1 159 192
M  V30 211 1 164 193
M  V30 212 1 165 194
M  V30 213 1 170 195
M  V30 214 1 171 196
M  V30 215 1 173 197
M  V30 216 1 174 198
M  V30 217 1 175 199
M  V30 218 1 176 200
M  V30 219 1 177 201
M  V30 220 1 178 202
M  V30 221 1 180 203
M  V30 222 1 181 204
M  V30 223 1 182 205
M  V30 224 1 184 206
M  V30 225 9 4 1
M  V30 226 9 109 1
M  V30 227 9 43 1
M  V30 228 9 172 1
M  V30 229 9 20 2
M  V30 230 9 120 2
M  V30 231 9 59 2
M  V30 232 9 183 2
M  V30 END BOND
M  V30 END CTAB
M  END

$$$$
