
     RDKit          3D

  0  0  0  0  0  0  0  0  0  0999 V3000
M  V30 BEGIN CTAB
M  V30 COUNTS 212 238 0 0 0
M  V30 BEGIN ATOM
M  V30 1 Pd -3.4549 5.1559 -3.9899 0 CHG=2
M  V30 2 Pd -1.4173 -6.7455 -5.4148 0 CHG=2
M  V30 3 C -4.9080 -0.5630 -10.0248 0
M  V30 4 C -4.3681 -1.7584 -9.5819 0
M  V30 5 C -3.5837 -1.7837 -8.4301 0
M  V30 6 C -3.3551 -0.6004 -7.7346 0
M  V30 7 C -3.9367 0.5940 -8.1504 0
M  V30 8 C -4.7143 0.6051 -9.3078 0
M  V30 9 C -3.7654 1.7970 -7.3265 0
M  V30 10 C -2.5413 2.0985 -6.7215 0
M  V30 11 C -2.4562 3.1698 -5.8547 0
M  V30 12 N -3.5118 3.9338 -5.5644 0
M  V30 13 C -4.6767 3.6928 -6.1701 0
M  V30 14 C -4.8413 2.6480 -7.0592 0
M  V30 15 C -3.0332 -3.0378 -7.8997 0
M  V30 16 C -1.7251 -3.1034 -7.4095 0
M  V30 17 C -1.2821 -4.2663 -6.8133 0
M  V30 18 N -2.0683 -5.3383 -6.6735 0
M  V30 19 C -3.3034 -5.3097 -7.1749 0
M  V30 20 C -3.8164 -4.1901 -7.8037 0
M  V30 21 H -5.4977 -0.5445 -10.9284 0
M  V30 22 H -4.5361 -2.6640 -10.1441 0
M  V30 23 H -2.7750 -0.6230 -6.8251 0
M  V30 24 H -5.1482 1.5275 -9.6616 0
M  V30 25 H -1.6670 1.5039 -6.9301 0
M  V30 26 H -1.5191 3.4274 -5.3652 0
M  V30 27 H -5.5054 4.3526 -5.9207 0
M  V30 28 H -5.8050 2.4700 -7.5084 0
M  V30 29 H -1.0643 -2.2567 -7.5005 0
M  V30 30 H -0.2679 -4.3520 -6.4228 0
M  V30 31 H -3.9035 -6.2074 -7.0548 0
M  V30 32 H -4.8272 -4.1977 -8.1786 0
M  V30 33 C -5.9212 -1.9580 -0.1214 0
M  V30 34 C -5.2192 -2.9862 -0.7263 0
M  V30 35 C -4.2265 -2.6985 -1.6623 0
M  V30 36 C -3.9485 -1.3700 -1.9706 0
M  V30 37 C -4.6818 -0.3368 -1.3952 0
M  V30 38 C -5.6752 -0.6398 -0.4657 0
M  V30 39 C -4.4222 1.0433 -1.8251 0
M  V30 40 C -5.4678 1.9106 -2.1494 0
M  V30 41 C -5.1787 3.1542 -2.6800 0
M  V30 42 N -3.9264 3.5695 -2.8730 0
M  V30 43 C -2.9127 2.7783 -2.5085 0
M  V30 44 C -3.1164 1.5155 -1.9908 0
M  V30 45 C -3.5085 -3.7620 -2.3756 0
M  V30 46 C -2.1431 -3.6570 -2.6584 0
M  V30 47 C -1.5343 -4.6181 -3.4404 0
M  V30 48 N -2.2086 -5.6528 -3.9469 0
M  V30 49 C -3.5012 -5.7982 -3.6465 0
M  V30 50 C -4.1810 -4.8867 -2.8615 0
M  V30 51 H -6.6774 -2.1867 0.6138 0
M  V30 52 H -5.4278 -4.0090 -0.4531 0
M  V30 53 H -3.2014 -1.1400 -2.7145 0
M  V30 54 H -6.2373 0.1517 0.0053 0
M  V30 55 H -6.4933 1.6013 -2.0273 0
M  V30 56 H -5.9730 3.8346 -2.9744 0
M  V30 57 H -1.9084 3.1779 -2.6491 0
M  V30 58 H -2.2742 0.9033 -1.7121 0
M  V30 59 H -1.5653 -2.8353 -2.2679 0
M  V30 60 H -0.4748 -4.5620 -3.6822 0
M  V30 61 H -4.0072 -6.6671 -4.0629 0
M  V30 62 H -5.2315 -5.0249 -2.6630 0
M  V30 63 C -4.6489 7.8905 -1.0449 0
M  V30 64 C -4.6077 6.9332 -2.0179 0
M  V30 65 N -3.4447 6.3649 -2.4110 0
M  V30 66 C -2.3145 6.7124 -1.8358 0
M  V30 67 C -2.2404 7.6663 -0.8050 0
M  V30 68 C -1.0122 8.0508 -0.1955 0
M  V30 69 C 0.2498 7.3707 -0.5222 0
M  V30 70 C 1.3863 8.1104 -0.8483 0
M  V30 71 C 2.5828 7.4814 -1.1244 0
M  V30 72 C 2.6723 6.0887 -1.0727 0
M  V30 73 C 3.8873 5.4152 -1.3103 0
M  V30 74 C 4.9043 4.7808 -1.4624 0
M  V30 75 C 6.0648 3.9881 -1.5824 0
M  V30 76 C 5.9271 2.6243 -1.8313 0
M  V30 77 C 7.0709 1.8484 -1.8864 0
M  V30 78 C 7.3304 0.4490 -2.0987 0
M  V30 79 C 6.5368 -0.6596 -2.3348 0
M  V30 80 C 7.1576 -1.8981 -2.4816 0
M  V30 81 C 6.3733 -3.0542 -2.6819 0
M  V30 82 C 5.6844 -4.0374 -2.8187 0
M  V30 83 C 4.8868 -5.1991 -2.8726 0
M  V30 84 C 3.5871 -5.1805 -2.3582 0
M  V30 85 C 2.8366 -6.3370 -2.3195 0
M  V30 86 C 3.3611 -7.5427 -2.7909 0
M  V30 87 C 2.6166 -8.8010 -2.6282 0
M  V30 88 C 3.2340 -9.8780 -2.0291 0
M  V30 89 C 2.5454 -11.0700 -1.7682 0
M  V30 90 C 1.2229 -11.2044 -2.1011 0
M  V30 91 C 0.5557 -10.1489 -2.7481 0
M  V30 92 C -0.7950 -10.2377 -3.1548 0
M  V30 93 C -1.3707 -9.2031 -3.8359 0
M  V30 94 N -0.6792 -8.0849 -4.1476 0
M  V30 95 C 0.5725 -7.9526 -3.7616 0
M  V30 96 C 1.2574 -8.9388 -3.0304 0
M  V30 97 C 4.6487 -7.5503 -3.3294 0
M  V30 98 C 5.4016 -6.3958 -3.3771 0
M  V30 99 C 8.5542 -2.0121 -2.3943 0
M  V30 100 C 9.3550 -0.9124 -2.1578 0
M  V30 101 C 8.7312 0.3154 -2.0104 0
M  V30 102 O 9.3364 1.5119 -1.7682 0
M  V30 103 C 8.3377 2.4355 -1.6930 0
M  V30 104 C 8.4824 3.7927 -1.4555 0
M  V30 105 C 7.3349 4.5587 -1.4055 0
M  V30 106 C 1.5375 5.3442 -0.7360 0
M  V30 107 C 0.3448 5.9784 -0.4636 0
M  V30 108 C -1.0290 9.0725 0.7287 0
M  V30 109 C -2.2232 9.7010 1.1058 0
M  V30 110 C -3.4212 9.3194 0.5604 0
M  V30 111 C -3.4541 8.3045 -0.4128 0
M  V30 112 H -5.5825 8.3480 -0.7587 0
M  V30 113 H -5.5068 6.5973 -2.5293 0
M  V30 114 H -1.4060 6.2403 -2.2031 0
M  V30 115 H 1.3241 9.1877 -0.8940 0
M  V30 116 H 3.4586 8.0635 -1.3682 0
M  V30 117 H 4.9516 2.1890 -1.9728 0
M  V30 118 H 5.4650 -0.5700 -2.4023 0
M  V30 119 H 3.1947 -4.2589 -1.9581 0
M  V30 120 H 1.8580 -6.3254 -1.8629 0
M  V30 121 H 4.2658 -9.7933 -1.7229 0
M  V30 122 H 3.0674 -11.8809 -1.2832 0
M  V30 123 H 0.6858 -12.1137 -1.8798 0
M  V30 124 H -1.3540 -11.1333 -2.9353 0
M  V30 125 H -2.4043 -9.2407 -4.1685 0
M  V30 126 H 1.0879 -7.0371 -4.0500 0
M  V30 127 H 5.0586 -8.4730 -3.7122 0
M  V30 128 H 6.4018 -6.4098 -3.7821 0
M  V30 129 H 9.0076 -2.9848 -2.5109 0
M  V30 130 H 10.4279 -0.9993 -2.0893 0
M  V30 131 H 9.4586 4.2284 -1.3126 0
M  V30 132 H 7.4115 5.6188 -1.2156 0
M  V30 133 H 1.6177 4.2707 -0.6692 0
M  V30 134 H -0.5125 5.3998 -0.1530 0
M  V30 135 H -0.1053 9.3793 1.1960 0
M  V30 136 H -2.1903 10.4868 1.8452 0
M  V30 137 H -4.3424 9.7928 0.8629 0
M  V30 138 C -3.4545 8.7807 -6.1091 0
M  V30 139 C -3.8145 7.5823 -5.5614 0
M  V30 140 N -2.8950 6.7100 -5.0921 0
M  V30 141 C -1.6115 6.9855 -5.1914 0
M  V30 142 C -1.1247 8.1733 -5.7649 0
M  V30 143 C 0.2636 8.4771 -5.8577 0
M  V30 144 C 1.3079 7.4955 -5.5262 0
M  V30 145 C 1.2903 6.2169 -6.0881 0
M  V30 146 C 2.3353 5.3416 -5.8777 0
M  V30 147 C 3.4291 5.7230 -5.0954 0
M  V30 148 C 4.5378 4.8616 -4.9629 0
M  V30 149 C 5.5075 4.1413 -4.9324 0
M  V30 150 C 6.6319 3.2882 -4.9382 0
M  V30 151 C 6.4634 1.9246 -5.1685 0
M  V30 152 C 7.5890 1.1207 -5.2052 0
M  V30 153 C 7.8191 -0.2836 -5.4194 0
M  V30 154 C 7.0037 -1.3711 -5.6757 0
M  V30 155 C 7.5996 -2.6190 -5.8446 0
M  V30 156 C 6.7873 -3.7271 -6.1637 0
M  V30 157 C 6.0683 -4.6419 -6.4892 0
M  V30 158 C 5.1969 -5.6548 -6.9377 0
M  V30 159 C 5.5308 -7.0070 -6.8359 0
M  V30 160 C 4.6726 -7.9719 -7.3215 0
M  V30 161 C 3.4600 -7.6166 -7.9123 0
M  V30 162 C 2.5700 -8.6498 -8.4620 0
M  V30 163 C 3.0688 -9.6080 -9.3172 0
M  V30 164 C 2.2377 -10.5704 -9.9059 0
M  V30 165 C 0.8924 -10.5915 -9.6451 0
M  V30 166 C 0.3391 -9.6558 -8.7528 0
M  V30 167 C -1.0323 -9.6462 -8.4096 0
M  V30 168 C -1.4996 -8.7422 -7.4989 0
M  V30 169 N -0.6818 -7.8484 -6.8966 0
M  V30 170 C 0.5967 -7.8159 -7.2012 0
M  V30 171 C 1.1821 -8.6790 -8.1450 0
M  V30 172 C 3.1322 -6.2631 -8.0182 0
M  V30 173 C 3.9861 -5.2944 -7.5371 0
M  V30 174 C 8.9919 -2.7665 -5.7449 0
M  V30 175 C 9.8149 -1.6871 -5.4929 0
M  V30 176 C 9.2166 -0.4477 -5.3348 0
M  V30 177 O 9.8476 0.7348 -5.0910 0
M  V30 178 C 8.8691 1.6800 -5.0141 0
M  V30 179 C 9.0437 3.0344 -4.7831 0
M  V30 180 C 7.9139 3.8274 -4.7466 0
M  V30 181 C 3.4341 6.9884 -4.5038 0
M  V30 182 C 2.3894 7.8615 -4.7233 0
M  V30 183 C 0.6312 9.7243 -6.3154 0
M  V30 184 C -0.3192 10.6660 -6.7309 0
M  V30 185 C -1.6576 10.3738 -6.6990 0
M  V30 186 C -2.0882 9.1290 -6.2062 0
M  V30 187 H -4.2020 9.4763 -6.4556 0
M  V30 188 H -4.8554 7.2853 -5.4659 0
M  V30 189 H -0.9131 6.2543 -4.7863 0
M  V30 190 H 0.4803 5.9356 -6.7447 0
M  V30 191 H 2.3377 4.3691 -6.3444 0
M  V30 192 H 5.4799 1.5087 -5.3146 0
M  V30 193 H 5.9341 -1.2607 -5.7468 0
M  V30 194 H 6.4706 -7.2922 -6.3879 0
M  V30 195 H 4.9363 -9.0157 -7.2362 0
M  V30 196 H 4.1200 -9.6024 -9.5638 0
M  V30 197 H 2.6702 -11.2927 -10.5816 0
M  V30 198 H 0.2501 -11.3225 -10.1112 0
M  V30 199 H -1.6944 -10.3660 -8.8640 0
M  V30 200 H -2.5471 -8.7119 -7.2073 0
M  V30 201 H 1.2137 -7.0922 -6.6735 0
M  V30 202 H 2.2247 -5.9742 -8.5273 0
M  V30 203 H 3.7444 -4.2481 -7.6390 0
M  V30 204 H 9.4262 -3.7459 -5.8790 0
M  V30 205 H 10.8855 -1.7977 -5.4228 0
M  V30 206 H 10.0290 3.4479 -4.6370 0
M  V30 207 H 8.0141 4.8879 -4.5713 0
M  V30 208 H 4.2741 7.2809 -3.8926 0
M  V30 209 H 2.4062 8.8413 -4.2700 0
M  V30 210 H 1.6792 9.9737 -6.3871 0
M  V30 211 H 0.0179 11.6245 -7.0955 0
M  V30 212 H -2.3891 11.0896 -7.0408 0
M  V30 END ATOM
M  V30 BEGIN BOND
M  V30 1 2 3 4
M  V30 2 1 4 5
M  V30 3 2 5 6
M  V30 4 1 6 7
M  V30 5 2 7 8
M  V30 6 1 7 9
M  V30 7 2 9 10
M  V30 8 1 10 11
M  V30 9 2 11 12
M  V30 10 1 12 13
M  V30 11 2 13 14
M  V30 12 1 5 15
M  V30 13 2 15 16
M  V30 14 1 16 17
M  V30 15 2 17 18
M  V30 16 1 18 19
M  V30 17 2 19 20
M  V30 18 1 8 3
M  V30 19 1 14 9
M  V30 20 1 20 15
M  V30 21 1 3 21
M  V30 22 1 4 22
M  V30 23 1 6 23
M  V30 24 1 8 24
M  V30 25 1 10 25
M  V30 26 1 11 26
M  V30 27 1 13 27
M  V30 28 1 14 28
M  V30 29 1 16 29
M  V30 30 1 17 30
M  V30 31 1 19 31
M  V30 32 1 20 32
M  V30 33 2 33 34
M  V30 34 1 34 35
M  V30 35 2 35 36
M  V30 36 1 36 37
M  V30 37 2 37 38
M  V30 38 1 37 39
M  V30 39 2 39 40
M  V30 40 1 40 41
M  V30 41 2 41 42
M  V30 42 1 42 43
M  V30 43 2 43 44
M  V30 44 1 35 45
M  V30 45 2 45 46
M  V30 46 1 46 47
M  V30 47 2 47 48
M  V30 48 1 48 49
M  V30 49 2 49 50
M  V30 50 1 38 33
M  V30 51 1 44 39
M  V30 52 1 50 45
M  V30 53 1 33 51
M  V30 54 1 34 52
M  V30 55 1 36 53
M  V30 56 1 38 54
M  V30 57 1 40 55
M  V30 58 1 41 56
M  V30 59 1 43 57
M  V30 60 1 44 58
M  V30 61 1 46 59
M  V30 62 1 47 60
M  V30 63 1 49 61
M  V30 64 1 50 62
M  V30 65 2 63 64
M  V30 66 1 64 65
M  V30 67 2 65 66
M  V30 68 1 66 67
M  V30 69 2 67 68
M  V30 70 1 68 69
M  V30 71 2 69 70
M  V30 72 1 70 71
M  V30 73 2 71 72
M  V30 74 1 72 73
M  V30 75 3 73 74
M  V30 76 1 74 75
M  V30 77 2 75 76
M  V30 78 1 76 77
M  V30 79 1 77 78
M  V30 80 2 78 79
M  V30 81 1 79 80
M  V30 82 1 80 81
M  V30 83 3 81 82
M  V30 84 1 82 83
M  V30 85 2 83 84
M  V30 86 1 84 85
M  V30 87 2 85 86
M  V30 88 1 86 87
M  V30 89 2 87 88
M  V30 90 1 88 89
M  V30 91 2 89 90
M  V30 92 1 90 91
M  V30 93 2 91 92
M  V30 94 1 92 93
M  V30 95 2 93 94
M  V30 96 1 94 95
M  V30 97 2 95 96
M  V30 98 1 86 97
M  V30 99 2 97 98
M  V30 100 2 80 99
M  V30 101 1 99 100
M  V30 102 2 100 101
M  V30 103 1 101 102
M  V30 104 1 102 103
M  V30 105 1 103 104
M  V30 106 2 104 105
M  V30 107 1 72 106
M  V30 108 2 106 107
M  V30 109 1 68 108
M  V30 110 2 108 109
M  V30 111 1 109 110
M  V30 112 2 110 111
M  V30 113 1 111 63
M  V30 114 1 111 67
M  V30 115 1 107 69
M  V30 116 1 105 75
M  V30 117 2 103 77
M  V30 118 1 101 78
M  V30 119 1 98 83
M  V30 120 1 96 87
M  V30 121 1 96 91
M  V30 122 1 63 112
M  V30 123 1 64 113
M  V30 124 1 66 114
M  V30 125 1 70 115
M  V30 126 1 71 116
M  V30 127 1 76 117
M  V30 128 1 79 118
M  V30 129 1 84 119
M  V30 130 1 85 120
M  V30 131 1 88 121
M  V30 132 1 89 122
M  V30 133 1 90 123
M  V30 134 1 92 124
M  V30 135 1 93 125
M  V30 136 1 95 126
M  V30 137 1 97 127
M  V30 138 1 98 128
M  V30 139 1 99 129
M  V30 140 1 100 130
M  V30 141 1 104 131
M  V30 142 1 105 132
M  V30 143 1 106 133
M  V30 144 1 107 134
M  V30 145 1 108 135
M  V30 146 1 109 136
M  V30 147 1 110 137
M  V30 148 2 138 139
M  V30 149 1 139 140
M  V30 150 2 140 141
M  V30 151 1 141 142
M  V30 152 2 142 143
M  V30 153 1 143 144
M  V30 154 2 144 145
M  V30 155 1 145 146
M  V30 156 2 146 147
M  V30 157 1 147 148
M  V30 158 3 148 149
M  V30 159 1 149 150
M  V30 160 2 150 151
M  V30 161 1 151 152
M  V30 162 1 152 153
M  V30 163 2 153 154
M  V30 164 1 154 155
M  V30 165 1 155 156
M  V30 166 3 156 157
M  V30 167 1 157 158
M  V30 168 2 158 159
M  V30 169 1 159 160
M  V30 170 2 160 161
M  V30 171 1 161 162
M  V30 172 2 162 163
M  V30 173 1 163 164
M  V30 174 2 164 165
M  V30 175 1 165 166
M  V30 176 2 166 167
M  V30 177 1 167 168
M  V30 178 2 168 169
M  V30 179 1 169 170
M  V30 180 2 170 171
M  V30 181 1 161 172
M  V30 182 2 172 173
M  V30 183 2 155 174
M  V30 184 1 174 175
M  V30 185 2 175 176
M  V30 186 1 176 177
M  V30 187 1 177 178
M  V30 188 1 178 179
M  V30 189 2 179 180
M  V30 190 1 147 181
M  V30 191 2 181 182
M  V30 192 1 143 183
M  V30 193 2 183 184
M  V30 194 1 184 185
M  V30 195 2 185 186
M  V30 196 1 186 138
M  V30 197 1 186 142
M  V30 198 1 182 144
M  V30 199 1 180 150
M  V30 200 2 178 152
M  V30 201 1 176 153
M  V30 202 1 173 158
M  V30 203 1 171 162
M  V30 204 1 171 166
M  V30 205 1 138 187
M  V30 206 1 139 188
M  V30 207 1 141 189
M  V30 208 1 145 190
M  V30 209 1 146 191
M  V30 210 1 151 192
M  V30 211 1 154 193
M  V30 212 1 159 194
M  V30 213 1 160 195
M  V30 214 1 163 196
M  V30 215 1 164 197
M  V30 216 1 165 198
M  V30 217 1 167 199
M  V30 218 1 168 200
M  V30 219 1 170 201
M  V30 220 1 172 202
M  V30 221 1 173 203
M  V30 222 1 174 204
M  V30 223 1 175 205
M  V30 224 1 179 206
M  V30 225 1 180 207
M  V30 226 1 181 208
M  V30 227 1 182 209
M  V30 228 1 183 210
M  V30 229 1 184 211
M  V30 230 1 185 212
M  V30 231 9 12 1
M  V30 232 9 65 1
M  V30 233 9 42 1
M  V30 234 9 140 1
M  V30 235 9 18 2
M  V30 236 9 94 2
M  V30 237 9 48 2
M  V30 238 9 169 2
M  V30 END BOND
M  V30 END CTAB
M  END

$$$$
