210
cis_l1_lb
Pd    7.250600   -1.747200    0.306700
Pd   -7.237700   -1.789000    0.155200
 C    4.891800   -2.366200   -1.340500
 N    6.000500   -2.918000   -0.813700
 C    6.218700   -4.236200   -0.970300
 C    5.315600   -5.054300   -1.636200
 C    4.129900   -4.510500   -2.162200
 C    3.098200   -5.349600   -2.806900
 C    3.451000   -6.501000   -3.551800
 C    2.490000   -7.318200   -4.149900
 C    1.158300   -6.958600   -3.970900
 O    0.064900   -7.634800   -4.447500
 C   -1.042700   -6.951500   -4.015700
 C   -2.368400   -7.303600   -4.247100
 C   -3.347500   -6.481700   -3.685900
 C   -3.017600   -5.331100   -2.929400
 C   -4.067700   -4.493700   -2.312700
 C   -3.890300   -3.106700   -2.152500
 C   -4.848500   -2.356500   -1.489400
 N   -5.965600   -2.914100   -0.987600
 C   -6.180400   -4.230600   -1.162500
 C   -5.264400   -5.042400   -1.817800
 C   -1.669300   -4.994200   -2.726300
 C   -0.678900   -5.814500   -3.263500
 C    0.771600   -5.819900   -3.232700
 C    1.744500   -5.008000   -2.652500
 C    3.947100   -3.122700   -2.015100
 H    4.767200   -1.289500   -1.213300
 H    7.132500   -4.638900   -0.530400
 H    5.525900   -6.121500   -1.704700
 H    4.504900   -6.750500   -3.684600
 H    2.769200   -8.198400   -4.729900
 H   -2.629500   -8.182600   -4.837200
 H   -4.396900   -6.727100   -3.857000
 H   -3.009300   -2.601600   -2.547400
 H   -4.725600   -1.281300   -1.348600
 H   -7.102400   -4.636700   -0.743500
 H   -5.472400   -6.109200   -1.899200
 H   -1.394500   -4.126500   -2.125600
 H    1.451200   -4.143300   -2.055900
 H    3.074400   -2.621300   -2.432400
 C    4.923300   -1.303800    2.062600
 N    6.017300   -2.072800    1.910200
 C    6.200200   -3.126200    2.727000
 C    5.272400   -3.467300    3.702000
 C    4.095800   -2.710000    3.849300
 C    3.034300   -3.097200    4.802800
 C    3.358800   -3.703800    6.040200
 C    2.375800   -4.118100    6.939400
 C    1.052600   -3.924700    6.557700
 O   -0.053500   -4.295900    7.275700
 C   -1.146700   -3.957800    6.522000
 C   -2.474800   -4.191500    6.861200
 C   -3.440800   -3.801400    5.933000
 C   -3.094900   -3.179700    4.709300
 C   -4.139800   -2.804600    3.732800
 C   -4.018600   -1.647000    2.941900
 C   -4.975000   -1.362100    1.979300
 N   -6.032800   -2.168400    1.767600
 C   -6.193800   -3.260400    2.535900
 C   -5.279700   -3.601700    3.524100
 C   -1.744200   -2.944600    4.400900
 C   -0.763100   -3.345200    5.309000
 C    0.690100   -3.324100    5.332500
 C    1.687300   -2.897800    4.454600
 C    3.953700   -1.587900    3.012100
 H    4.824300   -0.443200    1.398100
 H    7.103300   -3.717700    2.568100
 H    5.452800   -4.353100    4.310900
 H    4.407100   -3.836400    6.312300
 H    2.630600   -4.577600    7.894900
 H   -2.745800   -4.661400    7.807100
 H   -4.493300   -3.963300    6.171400
 H   -3.184900   -0.958000    3.076500
 H   -4.898200   -0.469700    1.355500
 H   -7.067400   -3.881300    2.331100
 H   -5.440700   -4.515400    4.096300
 H   -1.462000   -2.493900    3.448100
 H    1.420700   -2.455000    3.494000
 H    3.090800   -0.927700    3.096100
 C   10.518900   -0.071200    2.486800
 C    9.637300   -0.932100    1.884900
 N    8.451000   -0.487900    1.376200
 C    8.104200    0.786500    1.491300
 C    8.916400    1.745500    2.140200
 C    8.528000    3.120700    2.288800
 C    7.176900    3.620000    1.931800
 C    7.033900    4.842900    1.248900
 C    5.778800    5.400000    1.027300
 C    4.613900    4.742600    1.476800
 C    3.335700    5.358900    1.337800
 C    2.256500    5.922200    1.288400
 C    1.027900    6.660500    1.291200
 N   -0.122000    5.966700    1.283300
 C   -1.277200    6.652900    1.305700
 C   -2.499400    5.904600    1.330300
 C   -3.570400    5.328800    1.408100
 C   -4.832900    4.685600    1.564900
 C   -6.020500    5.324900    1.149500
 C   -7.257800    4.728700    1.370300
 C   -7.358100    3.483300    2.018200
 C   -8.687600    2.924800    2.367300
 C   -9.636100    3.741000    2.967200
 C  -10.882700    3.237300    3.407000
 C  -11.195300    1.901700    3.268800
 C  -10.273300    1.028300    2.639400
 C  -10.538300   -0.354700    2.452100
 C   -9.632700   -1.147700    1.794700
 N   -8.480400   -0.626300    1.279100
 C   -8.187500    0.654900    1.446100
 C   -9.024500    1.544500    2.158500
 C   -6.169000    2.838100    2.411800
 C   -4.926800    3.421700    2.184100
 C   -1.329100    8.061800    1.335100
 C   -0.131700    8.772100    1.348100
 C    1.070000    8.069900    1.324900
 C    4.749500    3.497200    2.125000
 C    6.009800    2.953100    2.353800
 C    9.452400    4.000200    2.835500
 C   10.725100    3.569100    3.276500
 C   11.090900    2.242900    3.191400
 C   10.195400    1.305200    2.618900
 H   11.473300   -0.445800    2.859400
 H    9.848200   -1.995500    1.772500
 H    7.157800    1.078400    1.036300
 H    7.922400    5.365400    0.890100
 H    5.689000    6.355300    0.507900
 H   -5.962000    6.295800    0.655000
 H   -8.164800    5.237000    1.038200
 H   -9.399200    4.791600    3.142700
 H  -11.590400    3.918000    3.884500
 H  -12.144000    1.503600    3.633100
 H  -11.466200   -0.788200    2.827800
 H   -9.795400   -2.214500    1.640300
 H   -7.267100    1.010500    0.983100
 H   -6.215800    1.887600    2.946000
 H   -4.018200    2.916800    2.515600
 H   -2.293400    8.570100    1.350500
 H   -0.135100    9.863500    1.372400
 H    2.030900    8.584800    1.329800
 H    3.859200    2.977700    2.482500
 H    6.086400    2.020400    2.914800
 H    9.176300    5.047700    2.966900
 H   11.411000    4.299300    3.710600
 H   12.061500    1.900600    3.554900
 C   10.330100   -1.633500   -2.684300
 C    9.548100   -1.992500   -1.614300
 N    8.390000   -1.327200   -1.330500
 C    8.003100   -0.305300   -2.078900
 C    8.753800    0.167000   -3.177500
 C    8.326300    1.286600   -3.966000
 C    7.098000    2.043300   -3.612800
 C    6.060500    2.176900   -4.551000
 C    4.889100    2.855800   -4.228200
 C    4.724400    3.433000   -2.952000
 C    3.518700    4.133100   -2.637600
 C    2.477400    4.728700   -2.425200
 C    1.265100    5.476500   -2.236600
 N    0.103600    4.810300   -2.348500
 C   -1.042400    5.498400   -2.217600
 C   -2.271500    4.774300   -2.390600
 C   -3.326300    4.199800   -2.594300
 C   -4.546600    3.526000   -2.911200
 C   -4.727900    2.980800   -4.199200
 C   -5.914400    2.334600   -4.532100
 C   -6.951200    2.201100   -3.592900
 C   -8.201100    1.493300   -3.973100
 C   -8.944000    1.910700   -5.065300
 C  -10.138900    1.251100   -5.443900
 C  -10.603500    0.160900   -4.739000
 C   -9.867100   -0.321400   -3.627300
 C  -10.265500   -1.456600   -2.871700
 C   -9.497200   -1.891900   -1.820800
 N   -8.335000   -1.259900   -1.483000
 C   -7.926800   -0.199500   -2.164800
 C   -8.656200    0.343700   -3.245600
 C   -6.772300    2.751200   -2.309900
 C   -5.590100    3.405000   -1.970900
 C   -1.073600    6.884600   -1.966700
 C    0.134200    7.568000   -1.858800
 C    1.326800    6.861300   -1.988700
 C    5.770900    3.315400   -2.014400
 C    6.937800    2.631500   -2.343700
 C    9.080200    1.627200   -5.077100
 C   10.261600    0.921500   -5.413100
 C   10.704100   -0.134800   -4.644400
 C    9.954900   -0.539700   -3.510600
 H   11.241200   -2.193600   -2.899600
 H    9.805900   -2.822100   -0.955700
 H    7.058800    0.168600   -1.813300
 H    6.167200    1.722700   -5.538100
 H    4.087200    2.942000   -4.963200
 H   -3.928000    3.068900   -4.936200
 H   -6.036000    1.908600   -5.530000
 H   -8.611200    2.780600   -5.634600
 H  -10.699400    1.623100   -6.304100
 H  -11.527900   -0.343400   -5.026600
 H  -11.183000   -1.988500   -3.127300
 H   -9.771900   -2.758100   -1.218800
 H   -6.983500    0.250600   -1.856100
 H   -7.574100    2.685000   -1.571000
 H   -5.472700    3.833000   -0.976000
 H   -2.029200    7.399100   -1.866300
 H    0.146300    8.642000   -1.669300
 H    2.293900    7.357000   -1.902800
 H    5.666300    3.769600   -1.029600
 H    7.741900    2.566700   -1.607400
 H    8.769900    2.473100   -5.693400
 H   10.832300    1.232600   -6.290500
 H   11.621200   -0.669400   -4.898100
