194
trans_l2_lc
Pd   -6.228400    0.821800    0.545000
Pd    6.228400    0.821800   -0.545000
 C    0.000000    6.629300    0.000000
 C    1.209400    5.938200   -0.006500
 C    1.216400    4.537200    0.011700
 C    0.000000    3.848300    0.000100
 C   -1.216400    4.537200   -0.011500
 C   -1.209400    5.938200    0.006600
 C   -2.472400    3.764300   -0.018600
 C   -3.543700    4.100700    0.817800
 C   -4.651400    3.271500    0.875400
 N   -4.742900    2.156100    0.134600
 C   -3.762200    1.859700   -0.732900
 C   -2.618300    2.631300   -0.831100
 C    2.472300    3.764300    0.018800
 C    2.618300    2.631300    0.831300
 C    3.762200    1.859700    0.733000
 N    4.742800    2.156100   -0.134500
 C    4.651300    3.271500   -0.875300
 C    3.543700    4.100800   -0.817700
 H    0.000000    7.721100    0.000000
 H    2.152200    6.489600    0.002500
 H    0.000000    2.755900    0.000100
 H   -2.152300    6.489500   -0.002500
 H   -3.499700    4.974600    1.468800
 H   -5.478800    3.484700    1.554600
 H   -3.894000    0.967500   -1.348600
 H   -1.842800    2.341200   -1.541100
 H    1.842800    2.341300    1.541300
 H    3.894000    0.967400    1.348700
 H    5.478800    3.484700   -1.554500
 H    3.499600    4.974700   -1.468600
 C   -0.000000   -4.979700   -0.000300
 C    1.193800   -4.287800   -0.185200
 C    1.197800   -2.887800   -0.210900
 C   -0.000100   -2.196600   -0.000100
 C   -1.197900   -2.887800    0.210700
 C   -1.193900   -4.287900    0.184700
 C   -2.443600   -2.132600    0.445900
 C   -2.485400   -1.060000    1.346900
 C   -3.646300   -0.316800    1.475900
 N   -4.743800   -0.576600    0.744800
 C   -4.740800   -1.636300   -0.081600
 C   -3.624200   -2.440500   -0.241000
 C    2.443500   -2.132500   -0.446000
 C    3.624100   -2.440500    0.240900
 C    4.740700   -1.636300    0.081500
 N    4.743700   -0.576500   -0.744800
 C    3.646200   -0.316700   -1.475900
 C    2.485400   -1.059900   -1.347000
 H   -0.000000   -6.071300   -0.000400
 H    2.124700   -4.837100   -0.341100
 H   -0.000100   -1.103700    0.000000
 H   -2.124800   -4.837200    0.340600
 H   -1.617500   -0.804100    1.955500
 H   -3.700700    0.527900    2.164700
 H   -5.654500   -1.824100   -0.648800
 H   -3.660900   -3.268900   -0.948800
 H    3.660800   -3.269000    0.948500
 H    5.654400   -1.824200    0.648700
 H    3.700700    0.528000   -2.164600
 H    1.617400   -0.803800   -1.955600
 C    9.148500    4.011800   -0.291900
 C    9.035300    4.383500    1.073600
 C    8.136600    3.632600    1.882200
 C    7.929500    3.948300    3.263200
 C    8.632700    5.001000    3.801600
 C    9.540400    5.744000    3.003700
 C    9.744400    5.453200    1.673300
 C    6.935400    3.085700    3.956800
 C    5.570700    3.394500    3.882100
 C    4.609200    2.414600    4.107400
 C    4.998600    1.094800    4.398600
 C    4.072400    0.012200    4.349300
 C    3.367500   -0.968100    4.178300
 C    2.636200   -2.167500    3.932000
 C    3.344400   -3.357300    3.669300
 C    2.658300   -4.535000    3.393400
 C    1.267500   -4.556200    3.389300
 C    0.542700   -3.383800    3.671900
 C   -0.880500   -3.425400    3.712100
 C   -2.095600   -3.500300    3.756800
 C   -3.516800   -3.572800    3.749000
 C   -4.291000   -2.582700    4.381400
 C   -5.675500   -2.605600    4.281900
 C   -6.326400   -3.607600    3.546000
 C   -7.774600   -3.516700    3.237700
 C   -8.229300   -2.443700    2.406500
 C   -9.587700   -2.369300    1.985200
 C   -9.935300   -1.314600    1.103200
 C   -8.985200   -0.423900    0.676000
 N   -7.689100   -0.500300    1.095200
 C   -7.338900   -1.464900    1.928300
 C  -10.499200   -3.354400    2.434200
 C  -10.050300   -4.377200    3.239000
 C   -8.692400   -4.469800    3.627400
 C   -5.558500   -4.629700    2.972900
 C   -4.172700   -4.616700    3.072100
 C    1.234000   -2.189300    3.931200
 C    6.364200    0.823400    4.609800
 C    7.317600    1.809500    4.392300
 C    7.428700    2.581000    1.274700
 N    7.546400    2.271100   -0.003900
 C    8.401600    2.975500   -0.795900
 H    9.825000    4.555500   -0.953200
 H    8.493000    5.269100    4.850600
 H   10.086100    6.571200    3.463000
 H   10.442500    6.039800    1.072800
 H    5.259800    4.389600    3.555500
 H    3.550800    2.650500    3.983000
 H    4.435900   -3.341600    3.677400
 H    3.215400   -5.450000    3.181100
 H    0.727600   -5.480000    3.176800
 H   -3.794700   -1.782000    4.932500
 H   -6.262400   -1.816000    4.757200
 H  -10.960800   -1.216200    0.743500
 H   -9.229300    0.376500   -0.021100
 H   -6.298000   -1.493600    2.238900
 H  -11.545200   -3.299700    2.126300
 H  -10.749900   -5.143000    3.581400
 H   -8.367400   -5.307200    4.248500
 H   -6.053300   -5.417600    2.400600
 H   -3.582500   -5.401300    2.595200
 H    0.675800   -1.275800    4.141000
 H    6.675200   -0.188500    4.875800
 H    8.378700    1.561600    4.470400
 H    6.729800    1.984800    1.859500
 H    8.458800    2.672100   -1.842100
 C    9.935300   -1.314400   -1.103300
 C    9.587800   -2.369000   -1.985400
 C    8.229300   -2.443500   -2.406600
 C    7.774700   -3.516500   -3.238000
 C    8.692600   -4.469400   -3.627900
 C   10.050500   -4.376700   -3.239600
 C   10.499300   -3.353900   -2.434700
 C    6.326500   -3.607300   -3.546200
 C    5.675600   -2.605200   -4.282000
 C    4.291100   -2.582300   -4.381400
 C    3.516900   -3.572400   -3.749100
 C    2.095700   -3.499900   -3.756900
 C    0.880600   -3.425000   -3.712100
 C   -0.542600   -3.383400   -3.671900
 C   -1.267400   -4.555800   -3.389500
 C   -2.658200   -4.534700   -3.393600
 C   -3.344300   -3.356900   -3.669400
 C   -2.636100   -2.167100   -3.931900
 C   -3.367400   -0.967700   -4.178200
 C   -4.072400    0.012600   -4.349100
 C   -4.998500    1.095200   -4.398400
 C   -6.364000    0.823800   -4.609800
 C   -7.317500    1.809900   -4.392300
 C   -6.935400    3.086000   -3.956600
 C   -7.929600    3.948500   -3.263000
 C   -8.136600    3.632800   -1.882000
 C   -9.035400    4.383500   -1.073400
 C   -9.148700    4.011700    0.292100
 C   -8.401700    2.975400    0.796000
 N   -7.546400    2.271100    0.004000
 C   -7.428700    2.581100   -1.274500
 C   -9.744700    5.453100   -1.673000
 C   -9.540700    5.744000   -3.003400
 C   -8.632900    5.001100   -3.801300
 C   -5.570700    3.394800   -3.881600
 C   -4.609100    2.414900   -4.106900
 C   -1.233800   -2.189000   -3.931100
 C    4.172800   -4.616400   -3.072400
 C    5.558700   -4.629400   -2.973200
 C    7.338900   -1.464900   -1.928300
 N    7.689000   -0.500300   -1.095100
 C    8.985200   -0.423800   -0.676000
 H   10.960800   -1.215900   -0.743600
 H    8.367600   -5.306700   -4.249100
 H   10.750100   -5.142300   -3.582100
 H   11.545400   -3.299200   -2.126800
 H    6.262500   -1.815600   -4.757300
 H    3.794800   -1.781500   -4.932500
 H   -0.727500   -5.479700   -3.177100
 H   -3.215300   -5.449700   -3.181500
 H   -4.435700   -3.341300   -3.677600
 H   -6.675000   -0.188100   -4.876000
 H   -8.378600    1.561900   -4.470600
 H   -9.825300    4.555400    0.953500
 H   -8.458900    2.672000    1.842300
 H   -6.729800    1.985000   -1.859400
 H  -10.442800    6.039600   -1.072500
 H  -10.086500    6.571100   -3.462700
 H   -8.493300    5.269300   -4.850300
 H   -5.259900    4.389900   -3.554900
 H   -3.550800    2.650900   -3.982300
 H   -0.675700   -1.275400   -4.140800
 H    3.582700   -5.401000   -2.595500
 H    6.053400   -5.417400   -2.401000
 H    6.297900   -1.493600   -2.238800
 H    9.229300    0.376500    0.021200
