237
XYZ
Pd      7.847927    2.029016    0.304115
Pd     -2.246122   -7.756118    0.000669
Pd     -5.516957    5.896369   -0.320534
 C      7.996801    4.755101    1.562600
 C      7.529918    5.884482    2.223110
 C      6.209535    5.916124    2.655826
 C      5.397470    4.806366    2.416248
 C      3.976500    4.820403    2.865999
 O      3.366202    3.665416    2.546095
 C      2.050338    3.402888    2.874214
 C      1.024474    4.308203    2.608677
 C     -0.276356    3.910951    2.900916
 O     -1.334147    4.749226    2.581597
 C     -1.723310    5.683540    3.472269
 C     -2.961446    6.375944    3.025259
 C     -3.611105    6.030356    1.847727
 N     -4.753690    6.613511    1.455229
 C     -5.320195    7.580579    2.210815
 C     -6.622154    8.177086    1.798262
 C     -4.695652    7.984700    3.397663
 C     -3.519667    7.384444    3.814357
 O     -1.150220    5.918245    4.499370
 C     -0.565701    2.660006    3.436553
 C      0.481121    1.775892    3.688425
 C      1.795105    2.142244    3.408976
 O      3.459235    5.739317    3.437440
 C      5.940262    3.706660    1.756723
 N      7.211420    3.688470    1.338361
 H      9.025052    4.699797    1.201905
 H      8.203148    6.726227    2.386625
 H      5.796681    6.784054    3.173917
 H      1.221162    5.288980    2.178003
 H     -3.193519    5.254019    1.204964
 H     -7.447767    7.520413    2.117973
 H     -6.770773    9.149959    2.282168
 H     -6.701205    8.305208    0.710576
 H     -5.157850    8.773410    3.992123
 H     -3.026724    7.679924    4.742686
 H     -1.601640    2.386412    3.639589
 H      0.268973    0.788688    4.103902
 H      2.628054    1.461207    3.590403
 H      5.327161    2.824814    1.564504
 C     -4.184164    8.290322   -1.563638
 C     -3.182285    8.992807   -2.221840
 C     -2.050894    8.311365   -2.655169
 C     -1.962827    6.938495   -2.419171
 C     -0.755073    6.184668   -2.860604
 O     -0.873007    4.883494   -2.543312
 C      0.090202    3.937884   -2.831975
 C      1.447832    4.155674   -2.602824
 C      2.318328    3.096673   -2.842903
 O      3.667634    3.235466   -2.556851
 C      4.471040    3.873005   -3.431686
 C      5.893768    3.806550   -3.002933
 C      6.278552    3.151834   -1.840515
 N      7.559812    3.054341   -1.457705
 C      8.541162    3.600376   -2.210061
 C      9.966065    3.430115   -1.806848
 C      8.208641    4.287971   -3.384159
 C      6.888512    4.393338   -3.788760
 O      4.089948    4.409663   -4.434341
 C      1.872643    1.858309   -3.292666
 C      0.509263    1.670898   -3.510460
 C     -0.389150    2.709160   -3.281760
 O      0.180987    6.678958   -3.424870
 C     -3.013142    6.301858   -1.763245
 N     -4.094504    6.968280   -1.342961
 H     -5.081284    8.795426   -1.202354
 H     -3.297091   10.064950   -2.382593
 H     -1.235394    8.823500   -3.169851
 H      1.822183    5.110727   -2.238049
 H      5.524970    2.689843   -1.200993
 H     10.105392    3.490162   -0.719382
 H     10.596257    4.187902   -2.287776
 H     10.328213    2.442253   -2.135778
 H      9.008797    4.732840   -3.976550
 H      6.613559    4.919587   -4.705006
 H      2.590557    1.054211   -3.456741
 H      0.143873    0.702827   -3.859131
 H     -1.461655    2.580304   -3.435734
 H     -2.970514    5.229492   -1.571469
 C     -1.205794   -8.798101    2.689239
 C     -0.414771   -8.738442    3.831587
 C      0.451016   -7.662992    4.008234
 C      0.488765   -6.669614    3.028431
 C      1.379498   -5.478314    3.161534
 O      1.160502   -4.658347    2.125036
 C      1.737399   -3.442437    1.848121
 C      2.886719   -2.947182    2.467607
 C      3.357200   -1.712179    2.015320
 O      4.505336   -1.102228    2.457353
 C      5.397107   -1.538920    3.360838
 C      6.620349   -0.692987    3.277285
 C      6.800973    0.163946    2.199552
 N      7.887295    0.929715    2.049464
 C      8.867428    0.907147    2.980449
 C     10.039221    1.817099    2.838471
 C      8.748252    0.048963    4.082131
 C      7.632923   -0.760921    4.235883
 O      5.244954   -2.457401    4.119004
 C      2.707619   -0.986086    1.015620
 C      1.564799   -1.510916    0.425788
 C      1.077676   -2.745882    0.835456
 O      2.157434   -5.299973    4.058150
 C     -0.329947   -6.805973    1.911729
 N     -1.151069   -7.847409    1.744736
 H     -1.900796   -9.623531    2.526067
 H     -0.486569   -9.535578    4.571963
 H      1.088702   -7.581355    4.890898
 H      3.391240   -3.493985    3.257709
 H      6.037899    0.218761    1.424222
 H     10.420443    1.848073    1.808331
 H      9.748841    2.843706    3.114809
 H     10.851375    1.509547    3.507629
 H      9.551156    0.030179    4.819728
 H      7.535799   -1.436938    5.087915
 H      3.118827   -0.024049    0.706947
 H      1.055910   -0.958218   -0.366332
 H      0.193476   -3.191571    0.379416
 H     -0.316829   -6.043669    1.134544
 C      9.537025   -0.186705   -0.796127
 C      9.826434   -1.378386   -1.447932
 C      8.792002   -2.084613   -2.048777
 C      7.495455   -1.570498   -1.981469
 C      6.384239   -2.333607   -2.619209
 O      5.189255   -1.751598   -2.403052
 C      4.056786   -2.305834   -2.984532
 C      3.473896   -3.442642   -2.432799
 C      2.308079   -3.925443   -3.020677
 O      1.678215   -5.043776   -2.490185
 C      2.184192   -6.253733   -2.802175
 C      1.374730   -7.371143   -2.246219
 C      0.181140   -7.180610   -1.558075
 N     -0.530565   -8.203674   -1.060770
 C     -0.104366   -9.476991   -1.226776
 C     -0.897968  -10.597845   -0.650805
 C      1.081787   -9.727027   -1.923835
 C      1.827389   -8.679038   -2.433895
 O      3.179129   -6.416142   -3.452160
 C      1.720702   -3.295011   -4.112720
 C      2.325794   -2.156047   -4.640962
 C      3.503340   -1.658787   -4.084963
 O      6.542170   -3.342736   -3.247623
 C      7.286240   -0.361133   -1.322828
 N      8.289820    0.308831   -0.739695
 H     10.322207    0.388372   -0.303086
 H     10.854145   -1.741234   -1.471990
 H      8.967643   -3.029421   -2.566950
 H      3.913958   -3.938340   -1.567068
 H     -0.212643   -6.173021   -1.411848
 H     -0.887648  -10.549269    0.449512
 H     -1.947558  -10.562868   -0.976500
 H     -0.473795  -11.562952   -0.950915
 H      1.409219  -10.758836   -2.053606
 H      2.758149   -8.852487   -2.977311
 H      0.802751   -3.701844   -4.539761
 H      1.878488   -1.653551   -5.500786
 H      4.000039   -0.778478   -4.496301
 H      6.285604    0.071331   -1.265239
 C     -8.139330    4.928644    0.738337
 C     -9.036521    4.075600    1.367274
 C     -8.556081    2.918088    1.966272
 C     -7.185780    2.653120    1.921896
 C     -6.674569    1.405289    2.559261
 O     -5.348022    1.259985    2.381514
 C     -4.700234    0.182810    2.970324
 C     -4.823120   -1.093649    2.428844
 C     -4.099984   -2.123486    3.024311
 O     -4.162552   -3.407603    2.498502
 C     -5.226475   -4.170585    2.819992
 C     -5.127555   -5.545801    2.260057
 C     -4.013517   -6.005369    1.567026
 N     -3.943617   -7.246001    1.060774
 C     -4.976866   -8.107894    1.216745
 C     -4.909528   -9.468624    0.608754
 C     -6.114534   -7.702913    1.923481
 C     -6.197596   -6.424034    2.445610
 O     -6.150414   -3.787767    3.482913
 C     -3.266759   -1.900478    4.115806
 C     -3.162681   -0.611064    4.634121
 C     -3.884637    0.438114    4.068310
 O     -7.366058    0.631602    3.160488
 C     -6.345547    3.564681    1.285725
 N     -6.820568    4.674172    0.703282
 H     -8.480937    5.839896    0.244867
 H    -10.098152    4.323326    1.374594
 H     -9.222248    2.212324    2.466371
 H     -5.458296   -1.281522    1.562780
 H     -3.152106   -5.351174    1.422675
 H     -3.957286   -9.975859    0.822162
 H     -5.728931  -10.094821    0.980650
 H     -5.011756   -9.399891   -0.485646
 H     -6.935333   -8.409559    2.048944
 H     -7.079290   -6.088166    2.994795
 H     -2.711800   -2.734028    4.549040
 H     -2.515326   -0.422202    5.492733
 H     -3.826829    1.451163    4.469820
 H     -5.269343    3.389167    1.246736
 C     -3.677938   -8.119368   -2.688062
 C     -4.322102   -7.656431   -3.830884
 C     -4.503372   -6.287481   -4.008506
 C     -4.021457   -5.418918   -3.028329
 C     -4.159652   -3.936746   -3.156757
 O     -3.546220   -3.359567   -2.115131
 C     -3.389897   -2.026774   -1.821677
 C     -4.051612   -0.981560   -2.470242
 C     -3.791954    0.308019   -1.999044
 O     -4.396171    1.449801   -2.465125
 C     -5.356205    1.577462   -3.394996
 C     -5.920100    2.954088   -3.316409
 C     -5.631002    3.762156   -2.224566
 N     -6.124553    4.997638   -2.078978
 C     -6.934400    5.519739   -3.026346
 C     -7.423098    6.920294   -2.887775
 C     -7.275383    4.744265   -4.143337
 C     -6.779493    3.458394   -4.294656
 O     -5.717144    0.726213   -4.160820
 C     -2.899949    0.556983   -0.954680
 C     -2.260311   -0.509345   -0.336080
 C     -2.507984   -1.807840   -0.762933
 O     -4.719771   -3.372657   -4.056210
 C     -3.394660   -5.961194   -1.910872
 N     -3.232096   -7.277013   -1.742490
 H     -3.514425   -9.185799   -2.524726
 H     -4.673957   -8.374725   -4.571794
 H     -5.003581   -5.887192   -4.892831
 H     -4.734967   -1.161086   -3.294293
 H     -4.984409    3.383916   -1.433798
 H     -6.650862    7.619004   -3.249928
 H     -8.322040    7.079082   -3.495563
 H     -7.646227    7.181934   -1.844822
 H     -7.940797    5.172186   -4.893890
 H     -7.046068    2.845358   -5.158080
 H     -2.734116    1.586123   -0.633366
 H     -1.572523   -0.327752    0.491988
 H     -2.037386   -2.667078   -0.284182
 H     -3.009741   -5.301020   -1.135008
