131
XYZ
Pd     -2.900792    0.282511   -0.488822
Pd      3.765274   -0.661265    0.455277
C     -3.113003    1.348581   -4.638574
C     -1.919977    2.028044   -4.862620
C     -0.996852    2.162621   -3.822241
C      0.273329    2.931045   -4.029363
O      1.256174    2.499700   -3.098694
C      2.382580    3.233411   -3.090354
O      2.536868    4.214077   -3.763212
C      3.430219    2.680528   -2.189653
C      4.668309    3.292710   -2.187446
C      5.712938    2.763718   -1.405302
C      5.450053    1.591655   -0.628767
C      6.503290    1.023079    0.119756
C      7.756268    1.600585    0.109741
C      8.014670    2.768563   -0.641396
C      7.010116    3.338237   -1.387520
N      4.193901    1.032894   -0.630478
C      3.227861    1.545793   -1.376535
C     -1.317093    1.604198   -2.585003
N     -2.480502    0.970534   -2.373023
C     -3.361814    0.830911   -3.375559
H     -3.848148    1.216479   -5.434060
H     -1.705361    2.446554   -5.850036
H      0.097837    4.013719   -3.906123
H      0.649093    2.795310   -5.056337
H      4.826771    4.176787   -2.811698
H      6.312347    0.117916    0.700083
H      8.563781    1.148846    0.690634
H      9.013023    3.210211   -0.631433
H      7.195494    4.235507   -1.982488
H      2.249553    1.051627   -1.322780
H     -0.615067    1.630853   -1.747423
H     -4.284663    0.288240   -3.157601
C      4.634872    1.000014    4.307195
C      3.579570    1.871576    4.543996
C      2.563051    2.000075    3.592015
C      1.437382    2.956829    3.844431
O      0.421008    2.813029    2.864508
C     -0.308345    3.915601    2.616238
O     -0.099653    4.983972    3.118792
C     -1.420550    3.668914    1.658890
C     -2.251047    4.727227    1.348808
C     -3.332427    4.536113    0.468178
C     -3.541858    3.230063   -0.077142
C     -4.638216    3.030185   -0.944420
C     -5.480603    4.076866   -1.258929
C     -5.271697    5.368339   -0.727329
C     -4.215089    5.592108    0.122950
N     -2.691459    2.199900    0.255497
C     -1.675446    2.409356    1.079015
C      2.651822    1.240421    2.426555
N      3.683570    0.409496    2.203119
C      4.653199    0.281509    3.119609
H      5.440177    0.872885    5.032414
H      3.544846    2.449969    5.471816
H      1.803493    3.996603    3.841763
H      1.002160    2.776514    4.841923
H     -2.058898    5.705277    1.799166
H     -4.815216    2.038545   -1.362958
H     -6.324843    3.904669   -1.930700
H     -5.950906    6.181427   -0.990846
H     -4.039756    6.582622    0.549143
H     -1.011176    1.560056    1.271204
H      1.871170    1.266401    1.659929
H      5.462212   -0.417886    2.900373
C      4.217315   -4.373307    2.524403
C      2.930425   -4.691750    2.940636
C      1.869715   -3.835231    2.626819
C      0.480650   -4.190969    3.067043
O     -0.450070   -3.180814    2.711032
C     -1.403188   -2.901402    3.621675
O     -1.457082   -3.397539    4.711669
C     -2.406772   -1.923495    3.122102
C     -3.487693   -1.636192    3.931660
C     -4.476289   -0.738454    3.488251
C     -4.328837   -0.147057    2.192753
C     -5.321172    0.750610    1.746588
C     -6.407267    1.045375    2.544802
C     -6.557327    0.461410    3.821512
C     -5.605700   -0.415738    4.284182
N     -3.237674   -0.459401    1.413680
C     -2.318186   -1.302417    1.860039
C      2.150171   -2.677158    1.903396
N      3.399534   -2.378854    1.509871
C      4.415448   -3.202213    1.804824
H      5.064566   -5.022249    2.752087
H      2.751007   -5.607946    3.510792
H      0.446625   -4.350465    4.156337
H      0.167885   -5.135291    2.589335
H     -3.564237   -2.117082    4.910974
H     -5.219685    1.220347    0.768916
H     -7.164121    1.745354    2.183203
H     -7.425970    0.708695    4.434820
H     -5.702679   -0.879052    5.268741
H     -1.451177   -1.477167    1.214710
H      1.366249   -1.969511    1.611705
H      5.409233   -2.918626    1.450353
C      5.171247   -2.797959   -2.973150
C      4.023741   -3.390036   -3.486271
C      2.788998   -3.153777   -2.872036
C      1.558548   -3.823596   -3.403866
O      0.393092   -3.303888   -2.780757
C     -0.702933   -4.074053   -2.900535
O     -0.701286   -5.151990   -3.426554
C     -1.930480   -3.442410   -2.343501
C     -3.123828   -4.122329   -2.492971
C     -4.324410   -3.545824   -2.037838
C     -4.267135   -2.251547   -1.429905
C     -5.468918   -1.649373   -1.001401
C     -6.671681   -2.306388   -1.161769
C     -6.731861   -3.587727   -1.752592
C     -5.576764   -4.196187   -2.183703
N     -3.056956   -1.614889   -1.281112
C     -1.939722   -2.179678   -1.715545
C      2.760031   -2.321610   -1.755083
N      3.879108   -1.767518   -1.259186
C      5.062100   -1.988805   -1.849489
H      6.147199   -2.958755   -3.433983
H      4.088729   -4.035819   -4.366835
H      1.610370   -4.912523   -3.238153
H      1.483830   -3.679589   -4.494994
H     -3.120738   -5.101851   -2.979668
H     -5.435260   -0.664208   -0.534721
H     -7.594043   -1.829015   -0.823005
H     -7.695157   -4.088628   -1.866837
H     -5.604396   -5.184641   -2.648072
H     -1.009559   -1.621991   -1.549763
H      1.823681   -2.066410   -1.248836
H      5.937698   -1.501286   -1.415020
Cl      0.448491   -0.186692   -0.020433
