162
XYZ
Pd     -6.080209    0.148645    0.694941
Pd      6.080185    0.148434   -0.694979
C     -6.763050    4.028628    2.407442
C     -5.527211    4.384739    2.931044
C     -4.438584    3.499938    2.798902
C     -3.142809    3.799639    3.292158
C     -2.028790    4.064088    3.711002
C     -0.737118    4.391732    4.214410
C      0.406164    3.756678    3.705124
C      1.677124    4.083946    4.199519
C      2.848522    3.460612    3.678801
C      3.877067    2.961754    3.255258
C      5.106741    2.425126    2.789569
C      5.155447    1.670935    1.590678
N      6.267930    1.161121    1.086707
C      7.469399    1.352694    1.721863
C      7.509748    2.100630    2.942385
C      8.758318    2.297287    3.590155
C      9.913411    1.782782    3.052286
C      9.865834    1.048832    1.844977
C      8.670578    0.835717    1.192061
C      6.310941    2.626111    3.457985
C      1.793298    5.050174    5.219064
C      0.659468    5.678285    5.723012
C     -0.600699    5.360589    5.227905
C     -4.679582    2.279958    2.147484
N     -5.876238    1.952162    1.645742
C     -6.907287    2.806152    1.760054
H     -7.621900    4.697035    2.491097
H     -5.390244    5.342109    3.437925
H      0.305861    3.008447    2.917757
H      4.229965    1.505641    1.032749
H      8.783222    2.867128    4.521806
H     10.870702    1.938707    3.553681
H     10.789964    0.643351    1.427121
H      8.641515    0.258315    0.266862
H      6.329369    3.202113    4.385956
H      2.780767    5.305159    5.607750
H      0.759627    6.427351    6.511058
H     -1.489033    5.856556    5.622922
H     -3.873346    1.551252    2.041960
H     -7.859557    2.503409    1.319064
C     -6.391257   -1.314619    4.724580
C     -5.196506   -1.990317    4.931779
C     -4.251115   -2.060088    3.889605
C     -2.993295   -2.694928    4.053495
C     -1.907906   -3.218545    4.238286
C     -0.646092   -3.833489    4.480337
C      0.472084   -3.486718    3.706873
C      1.715864   -4.086320    3.951672
C      2.855910   -3.737746    3.170038
C      3.846014   -3.465073    2.513662
C      5.006974   -3.197557    1.740468
C      5.134456   -1.972814    1.039319
N      6.167918   -1.667265    0.271456
C      7.204903   -2.554872    0.119871
C      7.170663   -3.803761    0.819268
C      8.254229   -4.710231    0.671405
C      9.320319   -4.400026   -0.137687
C      9.343382   -3.170184   -0.834177
C      8.310136   -2.266410   -0.709643
C      6.056140   -4.103583    1.623968
C      1.830511   -5.045061    4.977850
C      0.721356   -5.387281    5.744224
C     -0.511505   -4.789249    5.506449
C     -4.593166   -1.453662    2.669669
N     -5.746147   -0.798698    2.487419
C     -6.632764   -0.716383    3.493486
H     -7.138420   -1.237748    5.516501
H     -4.978391   -2.458225    5.893885
H      0.373506   -2.746137    2.912113
H      4.341466   -1.226685    1.134179
H      8.222650   -5.659005    1.211905
H     10.150604   -5.100489   -0.247465
H     10.193541   -2.935270   -1.478631
H      8.338271   -1.321230   -1.254385
H      6.013719   -5.058092    2.153461
H      2.796800   -5.515073    5.169182
H      0.819648   -6.129757    6.538719
H     -1.380043   -5.058761    6.109911
H     -3.905896   -1.506961    1.822835
H     -7.550707   -0.155034    3.308354
C      6.391255   -1.315588   -4.724341
C      5.196493   -1.991299   -4.931430
C      4.251088   -2.060861   -3.889255
C      2.993253   -2.695693   -4.053051
C      1.907844   -3.219295   -4.237764
C      0.646031   -3.834285   -4.479701
C     -0.472158   -3.487322   -3.706342
C     -1.715941   -4.086962   -3.951034
C     -2.855999   -3.738191   -3.169507
C     -3.846095   -3.465364   -2.513183
C     -5.007016   -3.197751   -1.739963
C     -5.134495   -1.972887   -1.039027
N     -6.167914   -1.667239   -0.271145
C     -7.204841   -2.554872   -0.119307
C     -7.170605   -3.803882   -0.818487
C     -8.254114   -4.710379   -0.670363
C     -9.320138   -4.400087    0.138782
C     -9.343189   -3.170128    0.835069
C     -8.310000   -2.266325    0.710276
C     -6.056136   -4.103798   -1.623225
C     -1.830577   -5.045938   -4.976994
C     -0.721408   -5.388348   -5.743265
C      0.511455   -4.790276   -5.505599
C      4.593138   -1.454220   -2.669425
N      5.746131   -0.799248   -2.487281
C      6.632760   -0.717133   -3.493353
H      7.138426   -1.238873   -5.516270
H      4.978377   -2.459375   -5.893455
H     -0.373589   -2.746562   -2.911749
H     -4.341540   -1.226745   -1.134076
H     -8.222540   -5.659246   -1.210699
H    -10.150377   -5.100572    0.248764
H    -10.193291   -2.935150    1.479574
H     -8.338117   -1.321059    1.254869
H     -6.013714   -5.058402   -2.152546
H     -2.796867   -5.515981   -5.168241
H     -0.819692   -6.131004   -6.537592
H      1.380004   -5.059937   -6.108978
H      3.905857   -1.507348   -1.822589
H      7.550711   -0.155766   -3.308315
C      6.763160    4.027989   -2.408397
C      5.527288    4.384097   -2.931923
C      4.438597    3.499422   -2.799453
C      3.142779    3.799145   -3.292580
C      2.028727    4.063600   -3.711329
C      0.737105    4.391078   -4.214973
C     -0.406228    3.756225   -3.705555
C     -1.677143    4.083356   -4.200153
C     -2.848595    3.460249   -3.679286
C     -3.877178    2.961562   -3.255632
C     -5.106810    2.424831   -2.789952
C     -5.155504    1.670847   -1.590930
N     -6.267956    1.160977   -1.086948
C     -7.469405    1.352282   -1.722223
C     -7.509763    2.099994   -2.942883
C     -8.758311    2.296370   -3.590780
C     -9.913376    1.781809   -3.052904
C     -9.865790    1.048080   -1.845461
C     -8.670554    0.835239   -1.192420
C     -6.310988    2.625539   -3.458491
C     -1.793221    5.049238   -5.220038
C     -0.659339    5.677148   -5.724118
C      0.600785    5.359590   -5.228811
C      4.679567    2.279562   -2.147803
N      5.876256    1.951766   -1.646141
C      6.907367    2.805640   -1.760760
H      7.622060    4.696301   -2.492302
H      5.390343    5.341373   -3.438989
H     -0.306003    3.008269   -2.917917
H     -4.230042    1.505778   -1.032902
H     -8.783221    2.866041   -4.522534
H    -10.870651    1.937516   -3.554398
H    -10.789897    0.642549   -1.427602
H     -8.641483    0.258003   -0.267117
H     -6.329425    3.201376   -4.386564
H     -2.780657    5.304117   -5.608877
H     -0.759422    6.425949   -6.512426
H      1.489160    5.855404   -5.623929
H      3.873278    1.550953   -2.042017
H      7.859663    2.502908   -1.319820
