162
XYZ
Pd      6.116040    0.000012   -0.000046
Pd     -6.116036   -0.000038    0.000076
C      7.035970    1.799887   -3.793636
C      5.867303    2.467105   -4.134702
C      4.763436    2.419275   -3.260723
C      3.527890    3.049795   -3.558041
C      2.466081    3.579744   -3.837060
C      1.236458    4.208591   -4.186111
C      0.033425    3.794732   -3.594087
C     -1.176942    4.409628   -3.946036
C     -2.406926    3.989634   -3.361408
C     -3.480351    3.656844   -2.889017
C     -4.754550    3.309861   -2.367650
C     -4.921938    2.129231   -1.600767
N     -6.078810    1.746381   -1.086300
C     -7.210942    2.496018   -1.286126
C     -7.132593    3.700816   -2.054563
C     -8.311463    4.466066   -2.260232
C     -9.512153    4.056444   -1.732117
C     -9.582673    2.864645   -0.974802
C     -8.457352    2.099614   -0.753737
C     -5.887780    4.088462   -2.584101
C     -1.171859    5.452466   -4.894097
C      0.021351    5.862140   -5.479264
C      1.221340    5.248444   -5.136382
C      4.923753    1.703752   -2.063628
N      6.055599    1.061982   -1.750792
C      7.098275    1.094984   -2.596842
H      7.904284    1.814328   -4.454744
H      5.792893    3.020091   -5.073227
H      0.039341    2.987838   -2.860126
H     -4.056709    1.484739   -1.424777
H     -8.246055    5.385164   -2.847024
H    -10.415185    4.648208   -1.894767
H    -10.542820    2.549908   -0.559805
H     -8.518405    1.182538   -0.163301
H     -5.813617    5.006581   -3.171291
H     -2.112004    5.934181   -5.168429
H      0.015682    6.669522   -6.214268
H      2.156293    5.569874   -5.598664
H      4.104032    1.658992   -1.343835
H      7.994088    0.540627   -2.310549
C     -7.035955   -1.800143   -3.793407
C     -5.867251   -2.467291   -4.134482
C     -4.763360   -2.419346   -3.260539
C     -3.527775   -3.049783   -3.557871
C     -2.465945   -3.579676   -3.836910
C     -1.236371   -4.208611   -4.185976
C     -0.033289   -3.794775   -3.594035
C      1.177031   -4.409752   -3.946005
C      2.407065   -3.989781   -3.361464
C      3.480516   -3.656997   -2.889128
C      4.754684   -3.309992   -2.367702
C      4.922031   -2.129326   -1.600864
N      6.078874   -1.746456   -1.086347
C      7.211015   -2.496104   -1.286074
C      7.132709   -3.700936   -2.054462
C      8.311590   -4.466197   -2.260029
C      9.512249   -4.056554   -1.731861
C      9.582727   -2.864723   -0.974592
C      8.457395   -2.099679   -0.753627
C      5.887925   -4.088603   -2.584054
C      1.171852   -5.452647   -4.894002
C     -0.021406   -5.862297   -5.479087
C     -1.221349   -5.248523   -5.136184
C     -4.923692   -1.703786   -2.063468
N     -6.055573   -1.062081   -1.750624
C     -7.098273   -1.095193   -2.596641
H     -7.904289   -1.814674   -4.454487
H     -5.792830   -3.020310   -5.072986
H     -0.039130   -2.987833   -2.860125
H      4.056792   -1.484824   -1.424954
H      8.246214   -5.385320   -2.846784
H     10.415290   -4.648327   -1.894432
H     10.542849   -2.549970   -0.559551
H      8.518414   -1.182579   -0.163227
H      5.813795   -5.006749   -3.171207
H      2.111960   -5.934423   -5.168352
H     -0.015812   -6.669723   -6.214044
H     -2.156340   -5.569934   -5.598403
H     -4.103951   -1.658936   -1.343703
H     -7.994117   -0.540889   -2.310343
C      7.035933   -1.799824    3.793568
C      5.867267   -2.467046    4.134627
C      4.763409   -2.419232    3.260636
C      3.527866   -3.049765    3.557941
C      2.466084   -3.579750    3.836990
C      1.236490   -4.208654    4.186042
C      0.033426   -3.794801    3.594077
C     -1.176910   -4.409765    3.946018
C     -2.406924   -3.989801    3.361432
C     -3.480372   -3.656975    2.889119
C     -4.754571   -3.309965    2.367773
C     -4.921956   -2.129318    1.600911
N     -6.078829   -1.746455    1.086455
C     -7.210963   -2.496090    1.286274
C     -7.132617   -3.700902    2.054689
C     -8.311491   -4.466149    2.260349
C     -9.512181   -4.056509    1.732248
C     -9.582698   -2.864695    0.974956
C     -8.457373   -2.099668    0.753898
C     -5.887804   -4.088563    2.584215
C     -1.171765   -5.452652    4.894024
C      0.021475   -5.862317    5.479135
C      1.221434   -5.248561    5.136254
C      4.923736   -1.703726    2.063532
N      6.055580   -1.061946    1.750705
C      7.098246   -1.094931    2.596769
H      7.904240   -1.814252    4.454686
H      5.792850   -3.020026    5.073156
H      0.039293   -2.987864    2.860162
H     -4.056723   -1.484830    1.424926
H     -8.246086   -5.385258    2.847122
H    -10.415216   -4.648270    1.894892
H    -10.542845   -2.549943    0.559971
H     -8.518422   -1.182579    0.163482
H     -5.813644   -5.006695    3.171385
H     -2.111885   -5.934416    5.168354
H      0.015855   -6.669740    6.214095
H      2.156411   -5.569982    5.598495
H      4.104023   -1.658983    1.343730
H      7.994059   -0.540572    2.310478
C     -7.036004    1.799933    3.793609
C     -5.867357    2.467199    4.134649
C     -4.763492    2.419378    3.260666
C     -3.527969    3.049956    3.557954
C     -2.466172    3.579936    3.836958
C     -1.236556    4.208863    4.185887
C     -0.033534    3.794981    3.593856
C      1.176827    4.409957    3.945687
C      2.406800    3.989951    3.361045
C      3.480206    3.657076    2.888672
C      4.754437    3.310047    2.367417
C      4.921869    2.129365    1.600623
N      6.078774    1.746476    1.086258
C      7.210898    2.496114    1.286119
C      7.132504    3.700966    2.054467
C      8.311367    4.466218    2.260171
C      9.512094    4.056543    1.732178
C      9.582660    2.864687    0.974958
C      8.457346    2.099655    0.753860
C      5.887657    4.088656    2.583891
C      1.171751    5.452888    4.893645
C     -0.021447    5.862583    5.478820
C     -1.221431    5.248814    5.136050
C     -4.923791    1.703814    2.063593
N     -6.055617    1.061993    1.750784
C     -7.098291    1.094990    2.596837
H     -7.904316    1.814368    4.454719
H     -5.792961    3.020219    5.073155
H     -0.039454    2.988008    2.859982
H      4.056646    1.484870    1.424613
H      8.245925    5.385358    2.846892
H     10.415120    4.648308    1.894858
H     10.542836    2.549905    0.560065
H      8.518435    1.182530    0.163504
H      5.813460    5.006816    3.171013
H      2.111892    5.934659    5.167891
H     -0.015773    6.670038    6.213744
H     -2.156374    5.570257    5.598344
H     -4.104073    1.659062    1.343797
H     -7.994087    0.540597    2.310564
