131
XYZ
Pd     -2.569051    0.000841   -0.000054
Pd      4.311561   -0.000146    0.000727
C      5.577845    4.084298    0.095959
C      4.389332    4.806005    0.101206
C      3.168132    4.125699    0.080424
C      1.879035    4.897485    0.037556
O      0.766052    4.093689    0.402968
C      0.033223    4.507003    1.455858
O      0.295147    5.462850    2.129732
C     -1.168635    3.656862    1.675112
C     -2.103828    4.066851    2.604338
C     -3.269307    3.303329    2.809224
C     -3.444963    2.107058    2.042537
C     -4.619541    1.348549    2.230762
C     -5.573158    1.755473    3.141298
C     -5.401606    2.931777    3.903564
C     -4.268299    3.692296    3.738619
N     -2.481286    1.723050    1.138576
C     -1.397474    2.463201    0.962395
C      3.191534    2.731526    0.061393
N      4.345821    2.045569    0.057645
C      5.517560    2.697570    0.073467
H      6.546570    4.586315    0.115022
H      4.413199    5.899245    0.125292
H      1.696373    5.257463   -0.988691
H      1.931709    5.771843    0.702989
H     -1.932233    4.990084    3.165147
H     -4.766084    0.434274    1.654793
H     -6.476681    1.156284    3.276027
H     -6.169958    3.233674    4.617985
H     -4.120187    4.608071    4.315606
H     -0.648427    2.088780    0.258523
H      2.271867    2.134606    0.052479
H      6.427759    2.093564    0.070025
C      5.578164   -0.095127    4.084960
C      4.389563   -0.100587    4.806479
C      3.168431   -0.079853    4.126067
C      1.879252   -0.037650    4.897737
O      0.766491   -0.402636    4.093472
C      0.034355   -1.456422    4.505674
O      0.296364   -2.130552    5.461348
C     -1.167386   -1.675687    3.655314
C     -2.101376   -2.606756    4.063909
C     -3.265648   -2.813400    3.298977
C     -3.441632   -2.046017    2.103213
C     -4.614238   -2.237213    1.342354
C     -5.566063   -3.150599    1.747073
C     -5.394482   -3.913074    2.923255
C     -4.262806   -3.745705    3.685687
N     -2.479994   -1.138991    1.721483
C     -1.396854   -0.961969    2.462355
C      3.191942   -0.060764    2.731885
N      4.346337   -0.056902    2.046182
C      5.518048   -0.072633    2.698227
H      6.546802   -0.114082    4.587152
H      4.413308   -0.124870    5.899719
H      1.696411    0.988277    5.258521
H      1.931920   -0.703838    5.771534
H     -1.929188   -3.168548    4.986432
H     -4.760618   -1.661349    0.427916
H     -6.468096   -3.287554    1.146147
H     -6.161351   -4.629849    3.223334
H     -4.114505   -4.323140    4.601151
H     -0.648314   -0.257556    2.088195
H      2.272562   -0.052089    2.134425
H      6.428233   -0.068981    2.094245
C      5.575451   -4.085030   -0.100626
C      4.386667   -4.806304   -0.101320
C      3.165853   -4.125588   -0.075144
C      1.876438   -4.896601   -0.028040
O      0.763547   -4.093565   -0.395657
C      0.034700   -4.505150   -1.452157
O      0.298580   -5.460142   -2.126611
C     -1.166925   -3.655312   -1.673230
C     -2.101160   -4.065531   -2.603368
C     -3.265581   -3.301016   -2.810914
C     -3.441481   -2.104151   -2.045253
C     -4.614092   -1.343491   -2.237280
C     -5.566144   -1.749557   -3.149811
C     -5.394757   -2.926922   -3.910503
C     -4.263024   -3.689118   -3.742331
N     -2.479489   -1.720882   -1.139292
C     -1.396029   -2.461121   -0.961543
C      3.189806   -2.731347   -0.055164
N      4.344420   -2.045871   -0.056243
C      5.515845   -2.698359   -0.077332
H      6.543922   -4.587352   -0.124305
H      4.410053   -5.899519   -0.126565
H      1.694582   -5.252686    0.999689
H      1.928006   -5.773187   -0.690541
H     -1.929101   -4.988967   -3.163694
H     -4.760164   -0.428080   -1.662870
H     -6.468164   -1.148791   -3.287530
H     -6.161818   -3.228090   -4.626616
H     -4.114892   -4.605427   -4.318463
H     -0.647020   -2.085224   -0.258254
H      2.270231   -2.134146   -0.040756
H      6.426294   -2.094769   -0.077530
C      5.577673    0.104120   -4.083608
C      4.389093    0.101686   -4.805348
C      3.168147    0.072270   -4.125030
C      1.878748    0.020438   -4.895892
O      0.764963    0.389149   -4.094550
C      0.042299    1.451583   -4.502082
O      0.312127    2.130001   -5.452584
C     -1.160294    1.673913   -3.653810
C     -2.092697    2.605608   -4.064470
C     -3.258540    2.813021   -3.302127
C     -3.437462    2.046197   -2.106468
C     -4.611891    2.237362   -1.348482
C     -5.562814    3.150514   -1.755835
C     -5.388358    3.912613   -2.931835
C     -4.254836    3.745096   -3.691522
N     -2.476558    1.139753   -1.721708
C     -1.391901    0.961714   -2.460321
C      3.191701    0.052699   -2.730833
N      4.345994    0.056963   -2.044915
C      5.517625    0.080871   -2.696957
H      6.546270    0.130135   -4.585574
H      4.412771    0.126637   -5.898559
H      1.698107   -1.009066   -5.247331
H      1.929827    0.679464   -5.775087
H     -1.918549    3.166866   -4.986948
H     -4.760321    1.661744   -0.434183
H     -6.466376    3.287540   -1.157232
H     -6.154583    4.629172   -3.234066
H     -4.104484    4.322145   -4.606893
H     -0.643839    0.257855   -2.083987
H      2.271968    0.036613   -2.133886
H      6.427816    0.083520   -2.092991
Cl      0.909585    0.000120    0.001927
