86

H         14.39820       15.86950        9.83730
H          5.70920        6.88930       15.39400
H         12.55990       11.92550       12.95590
H         10.44170        5.51910       13.33370
H         11.08590       17.86210        5.62540
H          1.54770        8.02070       11.56710
H         13.02660       16.33500        5.63250
H          2.33220        5.76760       10.93480
H          9.75240       18.15740        7.68100
H          2.92280        9.41930       13.06640
H         16.98480       11.12170       19.83500
H         17.15130        4.03420       14.65100
H         15.99950        8.86600       19.79480
H         18.03000        6.31570       14.95500
H         16.07830       15.03300       11.63230
H          7.69600        6.93410       17.11080
H         10.34660       16.94830        9.72450
H          5.05610        8.56860       13.93810
H         16.54880       13.41520       13.45460
H         10.17300        7.02380       17.33190
H         16.74030       12.61480       17.89240
H         14.71810        3.63860       14.67370
H         14.77790        8.07200       17.81970
H         16.51540        8.19930       15.30680
H         13.63040       15.11710        7.68250
H          4.45750        4.91220       11.80910
H         15.85750       13.03350       15.65870
H         12.43570        4.50040       14.87040
H         15.17790       10.08910       12.01580
H         14.94890        8.45050       12.67420
H         13.80500        9.09250       11.46520
H         12.13460       10.73040       16.02340
H         12.33710        9.62310       17.40310
H         10.71210       10.17320       16.93760
N         13.09720       13.47760       11.73740
N          8.55010        5.82500       14.05410
N         12.41400       15.25830       10.00520
N          6.10340        6.18950       13.46680
O         13.56570        9.86610       13.31110
O         11.46880        8.78320       15.70720
C         13.66130       15.24270       10.32980
C          6.41310        6.45090       14.69380
C         13.35600       12.60630       12.69670
C          9.86520        5.84860       14.18480
C         11.34840       17.32470        6.52240
C          2.48530        7.64780       11.94650
C         12.44050       16.47070        6.52780
C          2.92810        6.38320       11.59000
C         10.59750       17.48720        7.67670
C          3.25580        8.43040       12.79260
C         16.44740       10.79420       18.95940
C         16.46450        4.85340       14.79290
C         15.88600        9.50800       18.93540
C         16.96390        6.15230       14.96900
C         15.32630       14.33490       11.96250
C          8.33920        6.65030       16.29340
C         10.93040       16.80340        8.83070
C          4.44720        7.94720       13.29710
C         15.58190       13.43990       12.97740
C          9.71220        6.69910       16.41300
C         16.31210       11.62410       17.88120
C         15.11550        4.63360       14.80690
C         15.20180        9.06530       17.83440
C         16.11400        7.20710       15.16770
C         12.79090       15.79770        7.68180
C          4.12600        5.89910       12.07940
C         15.45870       12.03100       15.61020
C         12.82240        5.49710       15.02660
C         14.06230       14.34420       11.36770
C          7.78120        6.26310       15.07180
C         12.04220       15.96160        8.85210
C          4.89270        6.66500       12.95690
C         14.23230       10.30340       14.45400
C         12.45780        7.84750       15.51430
C         14.57810       12.54520       13.37440
C         10.50800        6.33760       15.31970
C         15.61560       11.19680       16.72940
C         14.21430        5.69910       15.01470
C         14.77210       11.61940       14.48740
C         11.96230        6.52830       15.29880
C         15.05540        9.89090       16.70240
C         14.71750        7.01210       15.21520
C         14.36880        9.46150       15.53340
C         13.81160        8.08910       15.44310
C         14.43140        9.34680       12.31900
C         11.69510        9.88630       16.56120
