131
XYZ
Pd      2.585467    0.000367    0.000080
Pd     -4.186752   -0.000456   -0.000035
C     -5.403091   -0.910493   -3.988744
C     -4.238732   -0.750950   -4.734720
C     -3.053809   -0.388640   -4.091400
C     -1.784874   -0.156283   -4.865235
O     -0.633984   -0.483471   -4.100591
C     -0.106175   -1.706329   -4.296779
O     -0.545537   -2.518533   -5.060530
C      1.107818   -1.915092   -3.464970
C      1.962817   -2.959600   -3.751956
C      3.126448   -3.142193   -2.977501
C      3.370650   -2.244704   -1.890808
C      4.538929   -2.405952   -1.117720
C      5.426229   -3.420407   -1.408673
C      5.187924   -4.314997   -2.475435
C      4.058025   -4.177473   -3.246250
N      2.472692   -1.242427   -1.618325
C      1.401963   -1.075761   -2.375445
C     -3.083612   -0.205431   -2.709449
N     -4.212158   -0.358162   -2.002572
C     -5.353033   -0.704535   -2.617960
H     -6.343602   -1.199169   -4.460817
H     -4.252837   -0.915316   -5.815622
H     -1.686149    0.910708   -5.116576
H     -1.794064   -0.741099   -5.795553
H      1.735062   -3.629458   -4.585901
H      4.732194   -1.723619   -0.289191
H      6.329086   -3.534287   -0.804397
H      5.904985   -5.110684   -2.686448
H      3.862930   -4.857302   -4.078719
H      0.706899   -0.283377   -2.089966
H     -2.185098    0.049258   -2.135049
H     -6.241059   -0.823782   -1.993206
C     -5.402814   -3.989299    0.909824
C     -4.238330   -4.735140    0.750556
C     -3.053408   -4.091688    0.388474
C     -1.784347   -4.865394    0.156381
O     -0.633599   -4.100578    0.483675
C     -0.105292   -4.297317    1.706232
O     -0.544123   -5.061661    2.518163
C      1.108551   -3.465291    1.915039
C      1.963894   -3.752551    2.959192
C      3.127337   -2.977844    3.141906
C      3.371050   -1.890674    2.244864
C      4.539049   -1.117206    2.406339
C      5.426590   -1.408314    3.420539
C      5.188814   -2.475611    4.314633
C      4.059167   -3.246760    4.176915
N      2.472872   -1.618077    1.242818
C      1.402249   -2.375339    1.076102
C     -3.083345   -2.709745    0.205217
N     -4.212009   -2.002998    0.357684
C     -5.352883   -2.618515    0.703828
H     -6.343331   -4.461473    1.198313
H     -4.252340   -5.816039    0.914952
H     -1.685463   -5.116829   -0.910577
H     -1.793495   -5.795660    0.741279
H      1.736524   -4.586874    3.628711
H      4.731869   -0.288232    1.724417
H      6.329214   -0.803728    3.534622
H      5.906064   -2.686741    5.110119
H      3.864455   -4.079603    4.856395
H      0.706891   -2.089566    0.284071
H     -2.184839   -2.135254   -0.049295
H     -6.241013   -1.993868    0.822861
C     -5.402947    0.909916    3.988672
C     -4.238643    0.750062    4.734670
C     -3.053818    0.387407    4.091368
C     -1.784919    0.154662    4.865158
O     -0.633973    0.482356    4.100813
C     -0.107305    1.705772    4.296560
O     -0.547638    2.517954    5.059777
C      1.106721    1.915179    3.464961
C      1.961046    2.960262    3.751842
C      3.124630    3.143439    2.977444
C      3.369437    2.245968    1.890870
C      4.537618    2.407868    1.117770
C      5.424280    3.422907    1.408632
C      5.185396    4.317455    2.475300
C      4.055561    4.179323    3.246100
N      2.472114    1.243095    1.618483
C      1.401473    1.075860    2.375590
C     -3.083654    0.204210    2.709417
N     -4.212142    0.357252    2.002512
C     -5.352929    0.703934    2.617887
H     -6.343387    1.198851    4.460724
H     -4.252708    0.914449    5.815568
H     -1.686102   -0.912475    5.115817
H     -1.794235    0.738885    5.795846
H      1.732824    3.630138    4.585645
H      4.731300    1.725578    0.289298
H      6.327074    3.537295    0.804359
H      5.901962    5.113607    2.686248
H      3.860025    4.859130    4.078483
H      0.706900    0.283021    2.090207
H     -2.185187   -0.050669    2.135026
H     -6.240913    0.823424    1.993122
C     -5.403059    3.988131   -0.910822
C     -4.238877    4.734240   -0.750570
C     -3.054122    4.091048   -0.387504
C     -1.785354    4.864914   -0.154309
O     -0.634276    4.100752   -0.481972
C     -0.107475    4.296750   -1.705292
O     -0.547749    5.060098   -2.517381
C      1.106633    3.465266   -1.914670
C      1.961188    3.752468   -2.959476
C      3.124891    2.978218   -3.142536
C      3.369600    1.891490   -2.245225
C      4.537937    1.118593   -2.406957
C      5.424829    1.409776   -3.421703
C      5.186033    2.476581   -4.316111
C      4.056057    3.247201   -4.178124
N      2.472044    1.618775   -1.242651
C      1.401264    2.375714   -1.075547
C     -3.083889    2.709091   -0.204332
N     -4.212255    2.002080   -0.357752
C     -5.352984    2.617355   -0.704816
H     -6.343444    4.460098   -1.200076
H     -4.252984    5.815136   -0.914961
H     -1.686768    5.115297    0.912913
H     -1.794640    5.795755   -0.738289
H      1.733065    4.586413   -3.629210
H      4.731557    0.290024   -1.724771
H      6.327739    0.805651   -3.535966
H      5.902777    2.687779   -5.112036
H      3.860588    4.079692   -4.857818
H      0.706495    2.090037   -0.282983
H     -2.185450    2.134782    0.050817
H     -6.240875    1.992510   -0.824588
Cl     -0.857101   -0.000215   -0.000021
