119
XYZ
C     -4.425845   -2.673297    0.841163
C     -4.379471   -3.907991    1.495179
H     -5.255017   -4.558814    1.466111
C     -3.238513   -4.287989    2.182431
H     -3.176306   -5.240382    2.715233
C     -2.143196   -3.420515    2.205414
C     -2.232989   -2.211517    1.526611
H     -1.396409   -1.505209    1.484453
C     -5.650057   -2.254102    0.097769
H     -6.540278   -2.761713    0.490366
H     -5.805694   -1.167516    0.153244
H     -5.561054   -2.523475   -0.967179
C     -0.945350   -3.822484    2.992809
C      1.137718   -3.166787    3.809867
H      0.867961   -3.052293    4.872362
H      1.433037   -4.221059    3.674324
C      2.264282   -2.249604    3.447322
C      2.305691   -1.604839    2.212830
H      1.483763   -1.682173    1.496278
C      4.354096   -0.621635    2.710498
H      5.160541    0.035098    2.378601
C      4.382404   -1.221879    3.960936
H      5.222421   -1.038785    4.632960
C      3.328069   -2.049985    4.331345
H      3.331647   -2.535235    5.311522
C      4.426409   -2.673374   -0.840272
C      4.380105   -3.908492   -1.493451
H      5.255821   -4.559083   -1.464319
C      3.238964   -4.289244   -2.180017
H      3.176804   -5.242036   -2.712111
C      2.143431   -3.422065   -2.203221
C      2.233168   -2.212593   -1.525238
H      1.396435   -1.506419   -1.483053
C      5.650726   -2.253288   -0.097562
H      5.561860   -2.521360    0.967720
H      6.540899   -2.761372   -0.489661
H      5.806371   -1.166773   -0.154415
C      0.945428   -3.824862   -2.989968
C     -1.137389   -3.169510   -3.808041
H     -0.867610   -3.055552   -4.870591
H     -1.432617   -4.223728   -3.671908
C     -2.264006   -2.252151   -3.446103
C     -2.305398   -1.606473   -2.212078
H     -1.483551   -1.683403   -1.495371
C     -4.353712   -0.623453   -2.710537
H     -5.160026    0.033698   -2.379169
C     -4.382092   -1.224708   -3.960471
H     -5.222096   -1.042113   -4.632649
C     -3.327811   -2.053182   -4.330236
H     -3.331461   -2.539206   -5.310029
C     -4.426532    2.673031   -0.841368
C     -4.380066    3.907957   -1.494931
H     -5.255716    4.558647   -1.465998
C     -3.238906    4.288314   -2.181646
H     -3.176611    5.240908   -2.714078
C     -2.143524    3.420921   -2.204663
C     -2.233404    2.211693   -1.526295
H     -1.396855    1.505357   -1.484073
C     -5.650990    2.253359   -0.098657
H     -6.541234    2.760438   -0.491896
H     -5.806019    1.166683   -0.154027
H     -5.562789    2.523027    0.966282
C     -0.945600    3.823223   -2.991775
C      1.137130    3.167404   -3.809647
H      0.867230    3.052811   -4.872099
H      1.432364    4.221707   -3.674188
C      2.263832    2.250327   -3.447275
C      2.305107    1.604925   -2.213109
H      1.483026    1.681628   -1.496630
C      4.353737    0.622230   -2.710981
H      5.160147   -0.034664   -2.379330
C      4.382177    1.223152   -3.961085
H      5.222301    1.040504   -4.633098
C      3.327834    2.051377   -4.331189
H      3.331552    2.537200   -5.311082
C      4.426153    2.673658    0.839758
C      4.379743    3.908621    1.493241
H      5.255314    4.559401    1.464011
C      3.238732    4.288927    2.180249
H      3.176546    5.241512    2.712712
C      2.143383    3.421509    2.203484
C      2.233179    2.212253    1.525128
H      1.396587    1.505957    1.483035
C      5.650432    2.253941    0.096779
H      5.560897    2.521173   -0.968656
H      6.540421    2.762907    0.488125
H      5.806859    1.167567    0.154311
C      0.945650    3.823657    2.990955
C     -1.137020    3.167752    3.808901
H     -0.866786    3.052120    4.871162
H     -1.431987    4.222256    3.674498
C     -2.264129    2.251313    3.446196
C     -2.305268    1.605395    2.212312
H     -1.482887    1.681361    1.496087
C     -4.354691    0.624116    2.709779
H     -5.161344   -0.032466    2.378085
C     -4.383320    1.225653    3.959593
H     -5.223833    1.043815    4.631339
C     -3.328659    2.053435    4.329740
H     -3.332533    2.539758    5.309386
N     -3.348513   -1.856584    0.867782
N      3.337445   -0.823960    1.859670
N      3.348825   -1.856970   -0.867037
N     -3.337079   -0.825241   -1.859532
N     -3.349090    1.856468   -0.867869
N      3.336964    0.824063   -1.860180
N      3.348769    1.857015    0.866570
N     -3.337458    0.824979    1.859324
O     -0.856940   -4.866075    3.574309
O      0.010346   -2.879659    2.998345
O      0.856795   -4.869181   -3.570124
O     -0.010035   -2.881817   -2.996709
O     -0.856992    4.867220   -3.572513
O      0.009875    2.880185   -2.998017
O      0.857486    4.867227    3.572531
O     -0.010106    2.880896    2.996687
Pd     -3.343108   -0.000103   -0.000102
Pd      3.343080    0.000026   -0.000285
Cl      0.000051    0.000080   -0.000516
