119
XYZ
Pd      3.343374   -0.000077    0.000495
Pd     -3.343417   -0.000044   -0.000503
C      4.383610    1.224806   -3.959454
C      3.329081    2.052723   -4.329746
C      2.264753    2.251165   -3.446124
C      1.137925    3.167993   -3.808730
O      0.010523    2.880572   -2.997387
C     -0.945045    3.823538   -2.991353
O     -0.856437    4.867477   -3.572186
C     -2.143080    3.421196   -2.204442
C     -3.238415    4.288642   -2.181435
C     -4.379569    3.908382   -1.494662
C     -4.426083    2.673480   -0.841071
C     -5.650458    2.253935   -0.098143
N     -3.348739    1.856787   -0.867673
C     -2.233038    2.211944   -1.526114
C      2.305859    1.605542   -2.212058
N      3.337832    0.824915   -1.858969
C      4.354967    0.623639   -2.709493
H      5.224020    1.042598   -4.631230
H      3.332941    2.538712   -5.309554
H      1.432924    4.222344   -3.673175
H      0.868320    3.053352   -4.871248
H     -3.176061    5.241240   -2.713858
H     -5.255136    4.559176   -1.465649
H     -5.561234    2.521868    0.967137
H     -5.806635    1.167498   -0.155049
H     -6.540448    2.762484   -0.490022
H     -1.396501    1.505590   -1.483949
H      1.483540    1.681885   -1.495821
H      5.161498   -0.033037   -2.377706
C     -4.382414   -1.223326   -3.961244
C     -3.327791   -2.051132   -4.331511
C     -2.263738   -2.249922   -3.447635
C     -1.136804   -3.166613   -3.810254
O     -0.009650   -2.879528   -2.998446
C      0.946095   -3.822317   -2.992858
O      0.857806   -4.865878   -3.574420
C      2.143949   -3.420226   -2.205545
C      3.239597   -4.287293   -2.183281
C      4.380619   -3.907228   -1.496167
C      4.426713   -2.672855   -0.841558
C      5.650887   -2.253499   -0.098193
N      3.349088   -1.856504   -0.867520
C      2.233480   -2.211520   -1.526185
C     -2.305217   -1.604758   -2.213342
N     -3.337291   -0.824251   -1.860282
C     -4.354152   -0.622623   -2.711050
H     -5.222608   -1.040848   -4.633217
H     -3.331356   -2.536753   -5.311502
H     -1.431857   -4.221019   -3.675249
H     -0.866859   -3.051525   -4.872638
H      3.177583   -5.239456   -2.716519
H      5.256391   -4.557767   -1.467672
H      5.807379   -1.167106   -0.155206
H      6.540918   -2.762324   -0.489604
H      5.561119   -2.521196    0.967098
H      1.396699   -1.505483   -1.483259
H     -1.483133   -1.681400   -1.496871
H     -5.160767    0.033948   -2.379259
C      4.382412   -1.225134    3.960690
C      3.327824   -2.053173    4.330548
C      2.263782   -2.251572    3.446573
C      1.136875   -3.168486    3.808707
O      0.009728   -2.880968    2.997036
C     -0.946273   -3.823490    2.991469
O     -0.858174   -4.867130    3.572919
C     -2.144099   -3.421051    2.204287
C     -3.239849   -4.287985    2.181857
C     -4.380854   -3.907627    1.494880
C     -4.426851   -2.673072    0.840611
C     -5.651009   -2.253394    0.097403
N     -3.349148   -1.856831    0.866756
C     -2.233530   -2.212155    1.525246
C      2.305240   -1.605804    2.212598
N      3.337282   -0.825086    1.859918
C      4.354130   -0.623822    2.710788
H      5.222591   -1.042943    4.632758
H      3.331413   -2.539280    5.310299
H      1.431958   -4.222810    3.673111
H      0.866932   -3.054013    4.871156
H     -3.177917   -5.240286    2.714859
H     -5.256691   -4.558073    1.466240
H     -6.541065   -2.762307    0.488642
H     -5.561256   -2.520728   -0.967981
H     -5.807443   -1.167012    0.154791
H     -1.396673   -1.506202    1.482424
H      1.483158   -1.682126    1.496092
H      5.160717    0.032947    2.379319
C     -4.383453    1.223141    3.960019
C     -3.328918    2.050909    4.330621
C     -2.264629    2.249743    3.447041
C     -1.137800    3.166426    3.810015
O     -0.010389    2.879347    2.998566
C      0.945089    3.822410    2.992736
O      0.856405    4.866206    3.573813
C      2.143142    3.420340    2.205717
C      3.238489    4.287782    2.183031
C      4.379658    3.907737    1.496161
C      4.426169    2.673059    0.842143
C      5.650555    2.253742    0.099105
N      3.348804    1.856386    0.868429
C      2.233095    2.211326    1.526970
C     -2.305777    1.604645    2.212698
N     -3.337759    0.824161    1.859317
C     -4.354855    0.622512    2.709800
H     -5.223833    1.040636    4.631751
H     -3.332741    2.536474    5.310639
H     -1.432799    4.220834    3.674904
H     -0.868192    3.051333    4.872483
H      3.176135    5.240199    2.715776
H      5.255239    4.558524    1.467400
H      5.806611    1.167261    0.155501
H      6.540570    2.762011    0.491291
H      5.561439    2.522197   -0.966054
H      1.396550    1.504995    1.484525
H     -1.483487    1.681301    1.496459
H     -5.161398   -0.034024    2.377765
Cl      0.000041    0.000115    0.000049
