162
XYZ
Pd     -5.479448   -0.243359   -0.437830
Pd      6.591123    0.462579    0.303350
C     -5.772219   -1.417908   -4.547318
C     -4.601203   -2.130789   -4.770916
C     -3.682749   -2.297917   -3.717662
C     -2.445493   -2.974291   -3.880676
C     -1.371687   -3.528788   -4.033905
C     -0.117817   -4.176606   -4.232715
C      1.027390   -3.714188   -3.568929
C      2.265058   -4.338742   -3.777634
C      3.438493   -3.856248   -3.129306
C      4.461807   -3.456660   -2.602529
C      5.669892   -2.996025   -2.016857
C      5.685361   -1.781492   -1.288691
N      6.773278   -1.281424   -0.729416
C      7.977505   -1.925436   -0.839667
C      8.049323   -3.162282   -1.552612
C      9.302483   -3.821573   -1.659483
C     10.429237   -3.275372   -1.093731
C     10.351034   -2.046397   -0.398803
C      9.150226   -1.382886   -0.270981
C      6.875743   -3.680560   -2.132304
C      2.345227   -5.442272   -4.648732
C      1.207286   -5.901113   -5.302937
C     -0.019241   -5.275693   -5.106379
C     -4.024272   -1.749565   -2.472811
N     -5.153755   -1.061072   -2.275848
C     -6.016246   -0.881347   -3.289452
H     -6.498431   -1.265429   -5.347613
H     -4.381867   -2.552633   -5.753807
H      0.956788   -2.858857   -2.895861
H      4.758939   -1.211238   -1.182980
H      9.354917   -4.767864   -2.202526
H     11.390460   -3.785660   -1.181497
H     11.256086   -1.620233    0.039809
H      9.094797   -0.431147    0.263602
H      6.916289   -4.623214   -2.682566
H      3.307597   -5.930866   -4.810399
H      1.278084   -6.755406   -5.979089
H     -0.910136   -5.633354   -5.625451
H     -3.359216   -1.879749   -1.617201
H     -6.913424   -0.293543   -3.082966
C      7.632177    2.227011   -3.454265
C      6.463209    2.861473   -3.853394
C      5.323839    2.795062   -3.028327
C      4.087089    3.395834   -3.375969
C      3.019503    3.899470   -3.677711
C      1.780137    4.497438   -4.044835
C      0.578732    4.028286   -3.493878
C     -0.640967    4.614660   -3.858320
C     -1.869214    4.136430   -3.316342
C     -2.939158    3.749973   -2.880488
C     -4.206444    3.326054   -2.400521
C     -4.346782    2.063566   -1.774854
N     -5.496625    1.600842   -1.314047
C     -6.645530    2.338896   -1.435079
C     -6.591991    3.626647   -2.054918
C     -7.788006    4.381907   -2.177023
C     -8.979703    3.881174   -1.711153
C     -9.024021    2.604790   -1.104972
C     -7.882234    1.846195   -0.967768
C     -5.354751    4.100857   -2.528948
C     -0.647998    5.683478   -4.775434
C      0.544428    6.146730   -5.320462
C      1.755007    5.561536   -4.966081
C      5.446279    2.094578   -1.819841
N      6.579234    1.485473   -1.452648
C      7.659316    1.535093   -2.248983
H      8.528366    2.258040   -4.076461
H      6.416816    3.404526   -4.799481
H      0.593466    3.201826   -2.782307
H     -3.469460    1.420070   -1.670208
H     -7.743382    5.365635   -2.649629
H     -9.896683    4.465692   -1.808775
H     -9.977162    2.216993   -0.738895
H     -7.923720    0.865812   -0.491525
H     -5.299087    5.082072   -3.005576
H     -1.596879    6.142566   -5.058120
H      0.529849    6.974030   -6.032755
H      2.690086    5.924459   -5.396117
H      4.598290    2.036118   -1.134840
H      8.553454    1.005764   -1.913109
C      7.205963    4.276184    2.131388
C      5.964193    4.603859    2.658465
C      4.887909    3.707689    2.506338
C      3.589714    3.990656    3.000068
C      2.476961    4.259059    3.418117
C      1.186925    4.592981    3.919145
C      0.061584    3.852654    3.528427
C     -1.206359    4.180204    4.027198
C     -2.352848    3.426238    3.640504
C     -3.346226    2.791289    3.334881
C     -4.506738    2.037446    3.014396
C     -4.600244    1.376435    1.766637
N     -5.629690    0.627476    1.407278
C     -6.693350    0.455564    2.256498
C     -6.693764    1.117901    3.524596
C     -7.806576    0.951875    4.390756
C     -8.865847    0.158820    4.022343
C     -8.851557   -0.502987    2.773566
C     -7.790451   -0.359269    1.907144
C     -5.583772    1.904737    3.883288
C     -1.340029    5.257202    4.924302
C     -0.223352    5.992311    5.307547
C      1.035438    5.670503    4.812635
C      5.144028    2.505117    1.830567
N      6.344826    2.209374    1.320987
C      7.365219    3.071163    1.457243
H      8.055743    4.953670    2.232225
H      5.812059    5.548350    3.184653
H      0.174299    3.016557    2.837191
H     -3.785142    1.488149    1.047666
H     -7.802550    1.464464    5.355267
H     -9.718905    0.034269    4.692241
H     -9.693919   -1.138984    2.492570
H     -7.789795   -0.884295    0.952595
H     -5.567390    2.406373    4.853410
H     -2.326787    5.511560    5.315100
H     -0.335914    6.826894    6.002386
H      1.911220    6.246882    5.115579
H      4.349377    1.766349    1.707269
H      8.321658    2.788145    1.012546
C      7.459176   -1.244386    4.133183
C      6.294724   -1.924052    4.463073
C      5.210384   -1.915882    3.564336
C      3.982986   -2.565781    3.848532
C      2.928223   -3.114262    4.115526
C      1.704501   -3.763483    4.443908
C      0.548126   -3.513673    3.690822
C     -0.654717   -4.157607    4.010199
C     -1.829352   -3.914932    3.239560
C     -2.840743   -3.732482    2.586021
C     -4.015723   -3.561892    1.806321
C     -4.286863   -2.315385    1.192380
N     -5.337872   -2.093355    0.420972
C     -6.251243   -3.089279    0.184311
C     -6.067653   -4.370383    0.791511
C     -7.027045   -5.390563    0.556583
C     -8.117645   -5.152490   -0.243903
C     -8.291615   -3.884031   -0.843022
C     -7.379599   -2.872315   -0.636466
C     -4.934642   -4.584259    1.598630
C     -0.692346   -5.057292    5.092486
C      0.454559   -5.300085    5.840840
C      1.649074   -4.661567    5.526684
C      5.381451   -1.221707    2.357450
N      6.508132   -0.565902    2.058483
C      7.534420   -0.564683    2.923436
H      8.313522   -1.230959    4.812217
H      6.208778   -2.458880    5.411019
H      0.586410   -2.819486    2.850470
H     -3.601988   -1.480316    1.358762
H     -6.881870   -6.366574    1.025016
H     -8.853326   -5.939775   -0.419865
H     -9.162717   -3.705379   -1.477351
H     -7.525387   -1.896979   -1.103513
H     -4.775765   -5.561862    2.059194
H     -1.628190   -5.561041    5.340563
H      0.416912   -5.997766    6.679783
H      2.548787   -4.854886    6.113317
H      4.577744   -1.204790    1.618530
H      8.428637   -0.007012    2.640107
