131
XYZ
Pd     -2.838181    0.291074   -0.498100
Pd      3.640018   -0.732863    0.383393
C     -3.065221    1.299895   -4.646785
C     -1.892613    2.016755   -4.865117
C     -0.981074    2.181628   -3.819712
C      0.274847    2.976502   -4.005812
O      1.241431    2.548845   -3.059645
C      2.305741    3.356013   -2.913423
O      2.429322    4.403925   -3.481907
C      3.326178    2.783456   -1.995961
C      4.530004    3.445090   -1.857525
C      5.546775    2.890654   -1.055784
C      5.290838    1.644636   -0.403998
C      6.318876    1.047138    0.355535
C      7.542599    1.670790    0.478002
C      7.793378    2.912942   -0.145891
C      6.813209    3.510544   -0.902122
N      4.063798    1.041939   -0.534527
C      3.124945    1.576182   -1.297569
C     -1.292656    1.618809   -2.584099
N     -2.436209    0.951376   -2.379173
C     -3.306581    0.777439   -3.384751
H     -3.790184    1.143102   -5.447027
H     -1.684972    2.439476   -5.852101
H      0.080778    4.054816   -3.876001
H      0.671971    2.850299   -5.025858
H      4.686698    4.386992   -2.390877
H      6.132748    0.084197    0.834485
H      8.333174    1.197628    1.064919
H      8.768823    3.389647   -0.031744
H      6.995744    4.464576   -1.401828
H      2.168436    1.042803   -1.344824
H     -0.600110    1.670946   -1.741110
H     -4.212080    0.206478   -3.166513
C      4.424678    0.527876    4.388266
C      3.435816    1.471633    4.638268
C      2.488889    1.756572    3.650415
C      1.432374    2.788787    3.899892
O      0.420748    2.704674    2.910926
C     -0.177693    3.858791    2.568436
O      0.128903    4.932683    3.002834
C     -1.281859    3.648530    1.595596
C     -2.043848    4.735929    1.219753
C     -3.118618    4.562299    0.326408
C     -3.385133    3.247767   -0.167354
C     -4.482045    3.057723   -1.034894
C     -5.269694    4.127467   -1.404642
C     -5.000920    5.430370   -0.930766
C     -3.944265    5.642610   -0.077849
N     -2.588958    2.195332    0.216970
C     -1.586690    2.382505    1.059365
C      2.577431    1.076779    2.437787
N      3.544575    0.177046    2.204154
C      4.447820   -0.103951    3.153236
H      5.173639    0.277866    5.141277
H      3.398202    1.982717    5.604508
H      1.865613    3.802529    3.894901
H      0.976457    2.637352    4.892109
H     -1.807948    5.721748    1.630419
H     -4.704751    2.055941   -1.403669
H     -6.117820    3.965052   -2.073772
H     -5.637373    6.262272   -1.238436
H     -3.727354    6.641733    0.306802
H     -0.971152    1.510142    1.297652
H      1.844478    1.221444    1.639588
H      5.202582   -0.857124    2.918629
C      4.062396   -4.637480    2.038246
C      2.791363   -4.942779    2.509692
C      1.753936   -4.018683    2.349315
C      0.379448   -4.345310    2.851948
O     -0.531538   -3.301264    2.558472
C     -1.338921   -2.897379    3.558570
O     -1.294216   -3.322539    4.677792
C     -2.315307   -1.873613    3.104353
C     -3.316371   -1.481045    3.969467
C     -4.273456   -0.537895    3.548542
C     -4.171296   -0.007607    2.224090
C     -5.136999    0.923313    1.789582
C     -6.154731    1.314775    2.633327
C     -6.257180    0.798568    3.943650
C     -5.331869   -0.113287    4.392122
N     -3.147745   -0.412413    1.400996
C     -2.263901   -1.303571    1.818581
C      2.040132   -2.810445    1.718516
N      3.273844   -2.526652    1.272306
C      4.268609   -3.412322    1.418440
H      4.891093   -5.339128    2.146102
H      2.606257   -5.901661    3.002375
H      0.394477   -4.521181    3.939367
H      0.012823   -5.266749    2.370068
H     -3.360046   -1.915997    4.971914
H     -5.072116    1.334844    0.783493
H     -6.894647    2.037307    2.281431
H     -7.072032    1.122956    4.593682
H     -5.397885   -0.528089    5.400477
H     -1.452039   -1.556198    1.131614
H      1.273432   -2.050030    1.539372
H      5.248159   -3.132859    1.023653
C      5.057839   -2.470074   -3.242987
C      3.926341   -3.075739   -3.776719
C      2.701783   -2.962183   -3.110745
C      1.481325   -3.637646   -3.657079
O      0.322509   -3.181459   -2.979410
C     -0.710772   -4.041172   -2.933065
O     -0.672913   -5.159248   -3.363216
C     -1.920427   -3.438704   -2.312476
C     -3.093693   -4.167205   -2.318415
C     -4.271810   -3.605062   -1.789944
C     -4.210789   -2.279525   -1.256968
C     -5.389336   -1.687390   -0.758026
C     -6.576496   -2.388618   -0.775677
C     -6.641061   -3.702892   -1.288918
C     -5.508305   -4.299765   -1.789446
N     -3.016409   -1.601529   -1.244640
C     -1.922214   -2.147401   -1.750410
C      2.666150   -2.237087   -1.923018
N      3.769639   -1.670186   -1.411170
C      4.943747   -1.770396   -2.049016
H      6.025238   -2.536225   -3.743360
H      3.996344   -3.635253   -4.713957
H      1.561396   -4.732239   -3.552768
H      1.375885   -3.427210   -4.734339
H     -3.096070   -5.172446   -2.749305
H     -5.349723   -0.674452   -0.356961
H     -7.482856   -1.920214   -0.385373
H     -7.592436   -4.238331   -1.290867
H     -5.542915   -5.312183   -2.198105
H     -1.002386   -1.555898   -1.686704
H      1.735868   -2.075622   -1.371245
H      5.803689   -1.274152   -1.593342
Cl      0.422762   -0.213877   -0.061057
