262
m2_lb
Pd    9.405600   -0.457600    1.048300
Pd   -9.447500   -1.038700    0.509900
 C   11.440900   -3.738000   -0.772900
 C   11.115700   -2.545000   -0.183600
 N    9.819500   -2.193500    0.050500
 C    8.841500   -3.013500   -0.292600
 C    9.068800   -4.275300   -0.886800
 C    7.995100   -5.151500   -1.252100
 C    6.592300   -4.747900   -0.993000
 C    6.134100   -4.509400    0.312400
 C    4.873500   -3.970700    0.536100
 C    4.040800   -3.643400   -0.549300
 C    2.848200   -2.887700   -0.361200
 C    1.906800   -2.120900   -0.256300
 C    0.926400   -1.077500   -0.246700
 N    0.061500   -1.009900    0.773700
 C   -0.802300    0.013600    0.793300
 C   -1.770200    0.088300    1.845800
 C   -2.691100    0.259200    2.625200
 C   -3.855600    0.521600    3.402100
 C   -4.209300    1.849900    3.704600
 C   -5.439300    2.134100    4.284800
 C   -6.352800    1.107500    4.565400
 C   -7.725700    1.432900    5.017200
 C   -7.955300    2.148800    6.176700
 C   -9.266400    2.459100    6.603800
 C  -10.363400    2.062500    5.873800
 C  -10.179300    1.349700    4.665100
 C  -11.257800    0.933200    3.845300
 C  -11.014800    0.272300    2.670700
 N   -9.747000    0.004300    2.248300
 C   -8.715100    0.378000    2.985700
 C   -8.855400    1.039900    4.226900
 C   -5.960800   -0.222300    4.343900
 C   -4.728300   -0.516000    3.776000
 C   -0.822500    1.018100   -0.191100
 C    0.066300    0.931000   -1.255900
 C    0.950300   -0.140400   -1.296900
 C    4.463700   -3.964800   -1.852500
 C    5.720900   -4.515500   -2.066500
 C    8.306000   -6.337300   -1.889000
 C    9.646400   -6.703900   -2.148800
 C   10.690600   -5.885000   -1.784100
 C   10.422000   -4.647900   -1.151100
 H   12.489300   -3.982300   -0.952000
 H   11.879500   -1.827300    0.119000
 H    7.823700   -2.673200   -0.096100
 H    6.784100   -4.726500    1.163600
 H    4.542100   -3.758800    1.554200
 H   -3.526600    2.658900    3.437200
 H   -5.720600    3.172600    4.476200
 H   -7.105800    2.462800    6.787300
 H   -9.403200    3.015100    7.533900
 H  -11.376100    2.295100    6.209100
 H  -12.286600    1.140500    4.143900
 H  -11.826500   -0.060800    2.022500
 H   -7.722700    0.156000    2.590200
 H   -6.640600   -1.038500    4.600600
 H   -4.451400   -1.553000    3.580300
 H   -1.526500    1.846200   -0.104200
 H    0.066200    1.704400   -2.032400
 H    1.660000   -0.265300   -2.115500
 H    3.815100   -3.731900   -2.699100
 H    6.056200   -4.719100   -3.086300
 H    7.499900   -7.013500   -2.182200
 H    9.848900   -7.656900   -2.642500
 H   11.725400   -6.171600   -1.981700
 C    9.250900   -3.328100    4.202900
 C    9.649200   -2.482300    3.203400
 N    8.799800   -1.562700    2.663200
 C    7.569900   -1.441200    3.137300
 C    7.066000   -2.248200    4.183400
 C    5.725200   -2.126000    4.676700
 C    4.814800   -1.043700    4.233500
 C    5.174600    0.305800    4.382200
 C    4.300400    1.319200    4.012900
 C    3.039400    1.013600    3.463900
 C    2.177400    2.066600    3.041700
 C    1.484400    2.993100    2.657400
 C    0.752100    4.120400    2.163400
 N   -0.509100    3.923500    1.759000
 C   -1.183100    4.960700    1.248900
 C   -2.525500    4.723400    0.799700
 C   -3.663900    4.562800    0.396000
 C   -4.992000    4.391300   -0.097200
 C   -5.285300    4.644500   -1.449700
 C   -6.577700    4.483200   -1.930700
 C   -7.620300    4.065300   -1.087300
 C   -8.995600    3.948100   -1.626000
 C   -9.520600    4.993700   -2.367200
 C  -10.831000    4.956400   -2.889200
 C  -11.642400    3.866700   -2.677000
 C  -11.149300    2.761800   -1.944100
 C  -11.928800    1.601900   -1.713500
 C  -11.400500    0.545300   -1.023200
 N  -10.122000    0.567800   -0.553300
 C   -9.362100    1.633600   -0.745700
 C   -9.817800    2.790100   -1.420800
 C   -7.325900    3.826600    0.265200
 C   -6.034200    3.981700    0.753700
 C   -0.628200    6.247500    1.130800
 C    0.675800    6.448800    1.568800
 C    1.385300    5.375900    2.094000
 C    2.672100   -0.337900    3.322300
 C    3.547300   -1.345300    3.711200
 C    5.288700   -3.047000    5.612700
 C    6.140500   -4.053600    6.117800
 C    7.445400   -4.152400    5.693900
 C    7.930200   -3.257800    4.711000
 H    9.951500   -4.066200    4.596600
 H   10.657200   -2.521000    2.788500
 H    6.931800   -0.689100    2.668300
 H    6.141500    0.566900    4.819300
 H    4.586800    2.363500    4.151800
 H   -4.487400    4.961100   -2.124000
 H   -6.783600    4.674100   -2.986500
 H   -8.912500    5.886300   -2.528800
 H  -11.201400    5.813100   -3.456400
 H  -12.661200    3.837100   -3.068300
 H  -12.951600    1.544800   -2.089000
 H  -11.977500   -0.359400   -0.826900
 H   -8.341400    1.584500   -0.362400
 H   -8.123100    3.545200    0.957300
 H   -5.827000    3.795800    1.808700
 H   -1.218100    7.060500    0.705800
 H    1.137700    7.435700    1.496900
 H    2.413500    5.488200    2.440500
 H    1.703500   -0.595400    2.887200
 H    3.249700   -2.389800    3.591500
 H    4.268800   -2.971400    5.996100
 H    5.755400   -4.747800    6.867900
 H    8.112500   -4.917300    6.096300
 C    9.850100    2.631000    3.905700
 C    9.879200    1.458900    3.201900
 N    9.103600    1.270400    2.096800
 C    8.262600    2.215000    1.706200
 C    8.126700    3.449500    2.383300
 C    7.222900    4.479400    1.957600
 C    6.224900    4.314300    0.873700
 C    6.075100    5.323400   -0.093400
 C    5.031400    5.292200   -1.007000
 C    4.090900    4.244000   -0.982100
 C    2.945500    4.293900   -1.828400
 C    1.933900    4.407700   -2.500000
 C    0.729600    4.636400   -3.240800
 N   -0.204400    3.676900   -3.229700
 C   -1.360900    3.897700   -3.867700
 C   -2.340900    2.852500   -3.837900
 C   -3.182200    1.970500   -3.838400
 C   -4.132200    0.907600   -3.865300
 C   -3.690500   -0.426700   -3.929200
 C   -4.605900   -1.467300   -4.001100
 C   -5.988100   -1.220300   -3.991200
 C   -6.934000   -2.351100   -4.151700
 C   -6.772300   -3.207900   -5.227500
 C   -7.652100   -4.286200   -5.463300
 C   -8.710600   -4.527700   -4.619400
 C   -8.904200   -3.700200   -3.488600
 C   -9.952200   -3.922600   -2.562100
 C  -10.071200   -3.127100   -1.455500
 N   -9.196000   -2.111400   -1.209000
 C   -8.215100   -1.858600   -2.060300
 C   -8.012100   -2.609100   -3.242000
 C   -6.427200    0.111300   -3.908100
 C   -5.516600    1.160400   -3.853200
 C   -1.631000    5.095200   -4.554100
 C   -0.650500    6.080600   -4.578300
 C    0.551100    5.857900   -3.916700
 C    4.269300    3.201600   -0.053500
 C    5.319700    3.239800    0.856400
 C    7.261400    5.691600    2.628800
 C    8.123000    5.918000    3.722400
 C    8.962300    4.926100    4.171500
 C    8.984500    3.678300    3.506400
 H   10.503500    2.758700    4.770200
 H   10.531900    0.633000    3.486700
 H    7.678100    2.016900    0.805800
 H    6.783100    6.154900   -0.118000
 H    4.919600    6.097600   -1.735200
 H   -2.620200   -0.641100   -3.928200
 H   -4.239800   -2.494500   -4.057800
 H   -5.956400   -3.026600   -5.930400
 H   -7.489500   -4.923800   -6.334900
 H   -9.401100   -5.353600   -4.801400
 H  -10.660900   -4.736700   -2.721500
 H  -10.862100   -3.279500   -0.719900
 H   -7.538300   -1.040700   -1.805200
 H   -7.496600    0.335500   -3.926800
 H   -5.875600    2.190000   -3.810400
 H   -2.589000    5.232300   -5.057200
 H   -0.823700    7.019600   -5.108100
 H    1.342300    6.608400   -3.905800
 H    3.550800    2.380600   -0.019100
 H    5.394800    2.449900    1.607000
 H    6.576400    6.486000    2.325400
 H    8.102300    6.888200    4.223200
 H    9.618300    5.086500    5.029400
 C   11.614100    2.096900   -1.548200
 C   11.210400    1.268800   -0.536000
 N    9.998500    0.645500   -0.564300
 C    9.193200    0.807100   -1.601100
 C    9.519100    1.629100   -2.703800
 C    8.626100    1.827700   -3.806600
 C    7.346400    1.090100   -3.934100
 C    7.316300   -0.313400   -3.957400
 C    6.122100   -0.997600   -4.148000
 C    4.915300   -0.294200   -4.313400
 C    3.690200   -0.996300   -4.528400
 C    2.648600   -1.597400   -4.723300
 C    1.425000   -2.303200   -4.983600
 N    0.612100   -2.521700   -3.944600
 C   -0.540600   -3.168400   -4.159700
 C   -1.400200   -3.380100   -3.033800
 C   -2.161400   -3.566000   -2.099800
 C   -3.066100   -3.796600   -1.024000
 C   -4.368700   -4.265400   -1.281600
 C   -5.251800   -4.505900   -0.237500
 C   -4.860400   -4.306300    1.096600
 C   -5.762300   -4.671800    2.214300
 C   -5.323800   -5.573000    3.169300
 C   -6.168100   -6.030900    4.204000
 C   -7.470400   -5.597600    4.294600
 C   -7.956100   -4.647200    3.366200
 C   -9.274600   -4.132900    3.426200
 C   -9.672400   -3.159200    2.551300
 N   -8.823100   -2.646800    1.615700
 C   -7.597800   -3.133000    1.499000
 C   -7.096800   -4.160800    2.331800
 C   -3.560700   -3.839300    1.350200
 C   -2.677400   -3.574900    0.310900
 C   -0.926500   -3.629000   -5.432300
 C   -0.073500   -3.402400   -6.505600
 C    1.123900   -2.729200   -6.289300
 C    4.941000    1.111700   -4.280400
 C    6.140800    1.789100   -4.099300
 C    8.989100    2.739300   -4.782200
 C   10.220200    3.429500   -4.733300
 C   11.106700    3.220100   -3.702700
 C   10.768000    2.324100   -2.661600
 H   12.583300    2.594400   -1.485100
 H   11.832400    1.087600    0.342000
 H    8.232500    0.288500   -1.567300
 H    8.245400   -0.880000   -3.858000
 H    6.118900   -2.088300   -4.181300
 H   -4.679900   -4.456200   -2.310300
 H   -6.248100   -4.895400   -0.460400
 H   -4.309000   -5.970200    3.097300
 H   -5.780700   -6.754700    4.924200
 H   -8.134800   -5.967200    5.078100
 H   -9.973000   -4.500500    4.179700
 H  -10.679300   -2.740700    2.579700
 H   -6.957900   -2.686400    0.734700
 H   -3.238800   -3.674200    2.381000
 H   -1.678300   -3.190200    0.528400
 H   -1.875800   -4.151100   -5.559900
 H   -0.340500   -3.747400   -7.506700
 H    1.819800   -2.528900   -7.104900
 H    4.011400    1.671300   -4.400900
 H    6.143700    2.881300   -4.075800
 H    8.318700    2.906700   -5.628000
 H   10.469500    4.127300   -5.535700
 H   12.064900    3.742100   -3.667900
