80

H         13.16560        9.66070       12.80850
H         11.38920        9.41490       15.84200
H         15.73210       15.96840       10.18340
H          5.64040        5.09330       15.98200
H         12.28950       13.02890       13.00090
H          9.93500        5.15670       12.80570
H         14.13070       17.36590        4.85760
H          0.54180        4.58150       13.37860
H         15.47690       15.48350        5.71910
H          1.77240        6.51400       14.29910
H         12.56020       18.53610        6.35840
H          1.76880        2.53290       12.75610
H         15.12940       10.32500       20.21380
H         16.83170        5.10760       12.52710
H         14.37660        8.11200       19.44190
H         17.49110        7.34070       13.33120
H         16.66430       15.12690       12.48330
H          7.83470        5.85260       17.15130
H         12.32930       17.83660        8.69410
H          4.19660        2.40930       13.05390
H         16.33210       13.49720       14.33450
H         10.14990        6.67580       16.80500
H         15.19150       12.22590       18.64870
H         14.48190        4.38490       12.67150
H         13.66430        7.77440       17.12050
H         15.82670        8.86210       14.28870
H         15.25100       14.77840        8.06740
H          4.21210        6.39760       14.59410
H         14.90020       13.10440       16.38620
H         12.20940        4.77560       13.46920
N         13.43200       14.36130       11.94920
N          8.26460        4.88610       13.95920
N         13.67510       15.83130        9.87220
N          5.76040        4.35230       14.03650
O         13.26170       10.60430       12.99850
O         10.97770        8.61090       15.49420
C         14.75970       15.65140       10.54720
C          6.25750        4.82600       15.13010
C         13.27290       13.46470       12.90920
C          9.50040        5.32560       13.78010
C         14.02870       17.05270        5.88410
C          1.61090        4.53120       13.50690
C         14.78700       15.99850        6.36890
C          2.30200        5.61450       14.02720
C         13.14300       17.70660        6.72670
C          2.30170        3.38210       13.15380
C         14.81770       10.19940       19.18930
C         16.08120        5.76860       12.92970
C         14.38570        8.93880       18.74900
C         16.45690        7.04040       13.38900
C         15.71460       14.63960       12.63290
C          8.33160        5.72880       16.20290
C         13.00840       17.31100        8.04420
C          3.67200        3.31140       13.31800
C         15.52780       13.73620       13.65650
C          9.61590        6.18730       16.00680
C         14.85120       11.25530       18.32210
C         14.77930        5.36410       13.01550
C         13.98400        8.75090       17.45410
C         15.52910        7.89000       13.92510
C         14.67270       15.60950        7.68940
C          3.66930        5.54570       14.20930
C         14.52580       12.14830       16.05240
C         12.47890        5.77080       13.79020
C         14.65470       14.90230       11.76290
C          7.65870        5.11600       15.14280
C         13.78190       16.26510        8.54470
C          4.37250        4.38650       13.86380
C         13.63750       10.73480       14.31340
C         11.92990        7.84270       14.89600
C         14.29670       13.07910       13.77360
C         10.21770        6.02330       14.75290
C         14.45070       11.09390       16.97820
C         13.80250        6.20210       13.59520
C         14.12390       11.99630       14.74590
C         11.55560        6.54250       14.45770
C         13.99850        9.82080       16.53670
C         14.18340        7.49070       14.05720
C         13.59980        9.66440       15.18100
C         13.20830        8.31430       14.68090
