150
This is an XYZ structure.
Pd       5.83100000      -0.00100000       0.00100000 
Pd      -6.43900000      -0.00100000      -0.00100000 
N      -6.39400000       1.08300000       1.75500000 
C      -7.46200000       1.79200000       2.18000000 
C      -7.41100000       2.53800000       3.35500000 
H      -8.35400000       1.75400000       1.56500000 
C      -6.23500000       2.57100000       4.09800000 
H      -8.28800000       3.09000000       3.67500000 
C      -5.11100000       1.84300000       3.65100000 
H      -6.17200000       3.15200000       5.01200000 
C      -5.25300000       1.09900000       2.46700000 
C      -3.87400000       1.84400000       4.34100000 
H      -4.42900000       0.50200000       2.09400000 
C      -2.80500000       1.85300000       4.92200000 
C      -1.56300000       1.86800000       5.61700000 
C      -0.39200000       1.42200000       4.98100000 
C       0.83000000       1.42400000       5.67100000 
H      -0.43400000       1.07000000       3.95500000 
C       2.02100000       0.96200000       5.03700000 
C       0.87400000       1.87700000       7.00700000 
C      -0.28700000       2.32600000       7.63300000 
H       1.81900000       1.87500000       7.54100000 
C      -1.50100000       2.32600000       6.95000000 
H      -0.24500000       2.67600000       8.65900000 
H      -2.40500000       2.67300000       7.43900000 
C       3.05000000       0.56900000       4.52200000 
C       4.26700000       0.07300000       3.98700000 
C       5.23400000      -0.56500000       4.79100000 
C       4.56400000       0.20400000       2.62400000 
H       5.06000000      -0.68100000       5.85600000 
C       6.40000000      -1.03700000       4.20900000 
C       6.63000000      -0.89500000       2.83400000 
H       7.15300000      -1.52700000       4.81600000 
N       5.70100000      -0.26600000       2.06700000 
C       7.88000000      -1.43500000       2.20000000 
H       3.87300000       0.71700000       1.96500000 
H       7.66500000      -2.35600000       1.64700000 
H       8.32000000      -0.71700000       1.50400000 
H       8.62700000      -1.67200000       2.96100000 
N      -6.39200000      -1.75700000       1.08200000 
C      -7.46000000      -2.18300000       1.79100000 
C      -7.40800000      -3.35800000       2.53700000 
H      -8.35200000      -1.56900000       1.75300000 
C      -6.23200000      -4.09900000       2.57100000 
H      -8.28500000      -3.67800000       3.09000000 
C      -5.10800000      -3.65200000       1.84300000 
H      -6.16700000      -5.01300000       3.15200000 
C      -5.25100000      -2.46800000       1.09900000 
C      -3.87000000      -4.34000000       1.84400000 
H      -4.42700000      -2.09400000       0.50100000 
C      -2.80100000      -4.92100000       1.85300000 
C      -1.56000000      -5.61800000       1.86600000 
C      -0.38800000      -4.98200000       1.42100000 
C       0.83400000      -5.67300000       1.42100000 
H      -0.42900000      -3.95600000       1.07100000 
C       2.02400000      -5.04000000       0.96000000 
C       0.87600000      -7.01100000       1.87100000 
C      -0.28600000      -7.63600000       2.31900000 
H       1.81900000      -7.54600000       1.86700000 
C      -1.49900000      -6.95200000       2.32100000 
H      -0.24500000      -8.66400000       2.66600000 
H      -2.40400000      -7.44100000       2.66600000 
C       3.05500000      -4.52600000       0.56900000 
C       4.27100000      -3.98900000       0.07500000 
C       5.24100000      -4.79300000      -0.56000000 
C       4.56700000      -2.62600000       0.20400000 
H       5.06900000      -5.85800000      -0.67500000 
C       6.40700000      -4.20900000      -1.03100000 
C       6.63500000      -2.83400000      -0.89100000 
H       7.16200000      -4.81600000      -1.52000000 
N       5.70400000      -2.06700000      -0.26400000 
C       7.88400000      -2.19900000      -1.43100000 
H       3.87400000      -1.96700000       0.71600000 
H       8.63000000      -2.95900000      -1.67300000 
H       8.32600000      -1.50700000      -0.70900000 
H       7.66800000      -1.63900000      -2.34700000 
N      -6.39200000      -1.08400000      -1.75700000 
C      -7.46000000      -1.79400000      -2.18300000 
C      -7.40700000      -2.54000000      -3.35800000 
H      -8.35200000      -1.75700000      -1.56900000 
C      -6.23100000      -2.57200000      -4.10100000 
H      -8.28400000      -3.09300000      -3.67800000 
C      -5.10800000      -1.84200000      -3.65300000 
H      -6.16700000      -3.15200000      -5.01500000 
C      -5.25100000      -1.09900000      -2.46900000 
C      -3.87000000      -1.84200000      -4.34200000 
H      -4.42800000      -0.50100000      -2.09600000 
C      -2.80200000      -1.84900000      -4.92300000 
C      -1.55900000      -1.86200000      -5.61900000 
C      -0.38900000      -1.41700000      -4.98200000 
C       0.83400000      -1.41600000      -5.67300000 
H      -0.43000000      -1.06700000      -3.95600000 
C       2.02400000      -0.95500000      -5.03900000 
C       0.87700000      -1.86600000      -7.01000000 
C      -0.28400000      -2.31400000      -7.63700000 
H       1.82100000      -1.86200000      -7.54500000 
C      -1.49800000      -2.31700000      -6.95300000 
H      -0.24300000      -2.66100000      -8.66400000 
H      -2.40300000      -2.66200000      -7.44200000 
C       3.05400000      -0.56300000      -4.52400000 
C       4.27100000      -0.07100000      -3.98700000 
C       5.24100000       0.56400000      -4.79000000 
C       4.56700000      -0.20300000      -2.62400000 
H       5.06800000       0.68100000      -5.85500000 
C       6.40800000       1.03300000      -4.20600000 
C       6.63600000       0.89000000      -2.83100000 
H       7.16300000       1.52200000      -4.81300000 
N       5.70400000       0.26400000      -2.06500000 
C       7.88600000       1.42700000      -2.19600000 
H       3.87400000      -0.71400000      -1.96600000 
H       8.63400000       1.66500000      -2.95600000 
H       8.32500000       0.70600000      -1.50200000 
H       7.67200000       2.34600000      -1.63900000 
N      -6.39100000       1.75600000      -1.08400000 
C      -7.45800000       2.18200000      -1.79400000 
C      -7.40500000       3.35700000      -2.54000000 
H      -8.35000000       1.56800000      -1.75700000 
C      -6.22800000       4.09800000      -2.57200000 
H      -8.28100000       3.67800000      -3.09300000 
C      -5.10500000       3.65100000      -1.84300000 
H      -6.16300000       5.01200000      -3.15300000 
C      -5.24900000       2.46700000      -1.10000000 
C      -3.86700000       4.33900000      -1.84300000 
H      -4.42600000       2.09300000      -0.50200000 
C      -2.79800000       4.92000000      -1.85200000 
C      -1.55700000       5.61600000      -1.86400000 
C      -0.38500000       4.98100000      -1.41900000 
C       0.83600000       5.67300000      -1.41800000 
H      -0.42600000       3.95400000      -1.07000000 
C       2.02700000       5.03900000      -0.95800000 
C       0.87800000       7.01000000      -1.86600000 
C      -0.28400000       7.63600000      -2.31300000 
H       1.82100000       7.54600000      -1.86100000 
C      -1.49700000       6.95100000      -2.31700000 
H      -0.24400000       8.66400000      -2.65900000 
H      -2.40200000       7.44000000      -2.66200000 
C       3.05800000       4.52500000      -0.56700000 
C       4.27400000       3.98700000      -0.07300000 
C       5.24500000       4.79100000       0.56200000 
C       4.56900000       2.62400000      -0.20300000 
H       5.07300000       5.85600000       0.67700000 
C       6.41100000       4.20600000       1.03200000 
C       6.63800000       2.83100000       0.89100000 
H       7.16600000       4.81300000       1.52000000 
N       5.70600000       2.06500000       0.26500000 
C       7.88700000       2.19500000       1.43000000 
H       3.87600000       1.96600000      -0.71400000 
H       7.67200000       1.64000000       2.34900000 
H       8.63500000       2.95500000       1.66800000 
H       8.32600000       1.50000000       0.71000000 
