150
This is an XYZ structure.
Pd      -5.95100000      -0.07700000      -0.08800000 
Pd       6.25800000       0.06200000       0.05900000 
N       6.20800000       1.07000000      -1.74200000 
C       7.25600000       1.07500000      -2.59500000 
C       7.19500000       1.75300000      -3.81000000 
H       8.14000000       0.52700000      -2.29100000 
C       6.02900000       2.42500000      -4.16500000 
H       8.05700000       1.74600000      -4.46800000 
C       4.92600000       2.41100000      -3.28500000 
H       5.95900000       2.95400000      -5.10900000 
C       5.07700000       1.72000000      -2.07000000 
C       3.69800000       3.05400000      -3.58200000 
H       4.27000000       1.70200000      -1.34700000 
C       2.63900000       3.59300000      -3.83800000 
C       1.40900000       4.23800000      -4.15200000 
C       0.21900000       3.83600000      -3.52200000 
C      -0.99300000       4.47300000      -3.83200000 
H       0.23700000       3.03100000      -2.79500000 
C      -2.20700000       4.06700000      -3.20600000 
C      -1.00600000       5.52300000      -4.77500000 
C       0.17400000       5.91700000      -5.40100000 
H      -1.94300000       6.01700000      -5.01200000 
C       1.37800000       5.28300000      -5.10000000 
H       0.15600000       6.72300000      -6.12800000 
H       2.29700000       5.58900000      -5.58800000 
C      -3.26100000       3.74000000      -2.69400000 
C      -4.51700000       3.41100000      -2.12400000 
C      -5.61700000       4.29400000      -2.17000000 
C      -4.72500000       2.17500000      -1.49800000 
H      -5.51300000       5.26200000      -2.64900000 
C      -6.82400000       3.91000000      -1.60700000 
C      -6.96600000       2.66100000      -0.98800000 
H      -7.67900000       4.57800000      -1.63900000 
N      -5.90400000       1.81600000      -0.94800000 
C      -8.26200000       2.24300000      -0.35400000 
H      -3.92400000       1.44500000      -1.45500000 
H      -9.06800000       2.92600000      -0.62900000 
H      -8.17500000       2.25000000       0.73800000 
H      -8.55400000       1.23200000      -0.66200000 
N      -5.77200000      -0.87600000      -1.98800000 
C      -6.70400000      -0.66100000      -2.94200000 
C      -6.55100000      -1.16700000      -4.23000000 
H      -7.57400000      -0.08200000      -2.65600000 
C      -5.40500000      -1.88600000      -4.55400000 
H      -7.32600000      -0.98900000      -4.96900000 
C      -4.41600000      -2.09400000      -3.56900000 
H      -5.26000000      -2.28100000      -5.55400000 
C      -4.66200000      -1.57500000      -2.28600000 
C      -3.20600000      -2.78200000      -3.83700000 
H      -3.95000000      -1.73500000      -1.48400000 
C      -2.15800000      -3.34800000      -4.08600000 
C      -0.93700000      -4.01300000      -4.39600000 
C       0.25000000      -3.65200000      -3.73800000 
C       1.45600000      -4.30000000      -4.05200000 
H       0.23700000      -2.86700000      -2.99100000 
C       2.66700000      -3.92500000      -3.40300000 
C       1.46300000      -5.32300000      -5.02500000 
C       0.28400000      -5.67900000      -5.67500000 
H       2.39400000      -5.82500000      -5.26500000 
C      -0.91200000      -5.03100000      -5.37300000 
H       0.29700000      -6.46400000      -6.42400000 
H      -1.83000000      -5.30700000      -5.88300000 
C       3.71600000      -3.61800000      -2.87100000 
C       4.95800000      -3.29100000      -2.26800000 
C       6.08900000      -4.12900000      -2.36200000 
C       5.11500000      -2.09600000      -1.55400000 
H       6.02400000      -5.06300000      -2.91000000 
C       7.27600000      -3.74700000      -1.75500000 
C       7.36600000      -2.54300000      -1.04500000 
H       8.15300000      -4.38200000      -1.82400000 
N       6.27400000      -1.74100000      -0.96200000 
C       8.63600000      -2.12900000      -0.35400000 
H       4.29000000      -1.39800000      -1.46900000 
H       9.47600000      -2.74600000      -0.68100000 
H       8.54000000      -2.24300000       0.73200000 
H       8.88700000      -1.08200000      -0.55800000 
N       6.18500000      -0.92100000       1.87600000 
C       7.19500000      -0.83500000       2.76900000 
C       7.11300000      -1.45100000       4.01500000 
H       8.06700000      -0.26600000       2.46900000 
C       5.96000000      -2.14800000       4.36200000 
H       7.94700000      -1.37300000       4.70400000 
C       4.89200000      -2.22400000       3.44300000 
H       5.87100000      -2.62500000       5.33200000 
C       5.06800000      -1.60000000       2.19500000 
C       3.67300000      -2.88000000       3.74200000 
H       4.29200000      -1.65500000       1.44000000 
C       2.61800000      -3.41900000       4.02000000 
C       1.38900000      -4.05200000       4.35500000 
C       0.21200000      -3.71600000       3.66600000 
C      -1.00200000      -4.34100000       3.99400000 
H       0.24100000      -2.97300000       2.87600000 
C      -2.19600000      -4.00800000       3.29200000 
C      -1.03000000      -5.31200000       5.01800000 
C       0.13800000      -5.64000000       5.70400000 
H      -1.96700000      -5.79800000       5.26900000 
C       1.34300000      -5.01800000       5.38300000 
H       0.10900000      -6.38400000       6.49300000 
H       2.25200000      -5.27500000       5.91700000 
C      -3.22500000      -3.74100000       2.70000000 
C      -4.43200000      -3.50300000       1.99500000 
C      -5.40700000      -4.50800000       1.81600000 
C      -4.70800000      -2.24800000       1.43700000 
H      -5.25000000      -5.49300000       2.24200000 
C      -6.55500000      -4.22300000       1.09500000 
C      -6.75900000      -2.95500000       0.53200000 
H      -7.31200000      -4.98600000       0.95000000 
N      -5.82700000      -1.98600000       0.72700000 
C      -7.97800000      -2.66800000      -0.29900000 
H      -4.01600000      -1.42500000       1.57600000 
H      -7.75200000      -2.79400000      -1.36500000 
H      -8.34100000      -1.64800000      -0.15300000 
H      -8.78700000      -3.35900000      -0.05000000 
N       6.14700000       1.86800000       1.05600000 
C       7.20300000       2.70900000       1.09800000 
C       7.12300000       3.93700000       1.75100000 
H       8.10900000       2.38600000       0.59800000 
C       5.93000000       4.31600000       2.35600000 
H       7.99100000       4.58700000       1.77300000 
C       4.81800000       3.44700000       2.30500000 
H       5.84300000       5.27100000       2.86300000 
C       4.98900000       2.21800000       1.64500000 
C       3.56600000       3.77700000       2.88100000 
H       4.17600000       1.50300000       1.59800000 
C       2.49200000       4.07400000       3.36600000 
C       1.24400000       4.43700000       3.94800000 
C       0.07400000       3.73700000       3.60700000 
C      -1.15400000       4.09000000       4.18900000 
H       0.12100000       2.91900000       2.89600000 
C      -2.34200000       3.37700000       3.85400000 
C      -1.20500000       5.15100000       5.11800000 
C      -0.04400000       5.84800000       5.44900000 
H      -2.15400000       5.42100000       5.56900000 
C       1.17500000       5.50100000       4.87200000 
H      -0.09100000       6.66500000       6.16200000 
H       2.07900000       6.04300000       5.13300000 
C      -3.36700000       2.78000000       3.58800000 
C      -4.57200000       2.07300000       3.34000000 
C      -5.57900000       1.93300000       4.31700000 
C      -4.81200000       1.47600000       2.09600000 
H      -5.45200000       2.38800000       5.29400000 
C      -6.72300000       1.20900000       4.01700000 
C      -6.89100000       0.60800000       2.76200000 
H      -7.50400000       1.09200000       4.76000000 
N      -5.92600000       0.76600000       1.81700000 
C      -8.10500000      -0.22400000       2.46100000 
H      -4.08800000       1.58400000       1.29600000 
H      -8.88300000      -0.05500000       3.20900000 
H      -7.85400000      -1.29000000       2.47600000 
H      -8.52200000       0.00900000       1.47800000 
