150
This is an XYZ structure.
Pd       5.97600000       0.11900000      -0.04300000 
Pd      -5.97600000      -0.11900000      -0.04300000 
N      -5.90600000      -0.94700000       1.84800000 
C      -6.97900000      -0.91800000       2.66700000 
C      -6.93700000      -1.49400000       3.93200000 
H      -7.86900000      -0.43000000       2.29100000 
C      -5.76900000      -2.11100000       4.36600000 
H      -7.81700000      -1.45600000       4.56300000 
C      -4.64800000      -2.13800000       3.51500000 
H      -5.71300000      -2.56800000       5.34800000 
C      -4.76900000      -1.53700000       2.25200000 
C      -3.42200000      -2.75100000       3.88400000 
H      -3.93700000      -1.54000000       1.55700000 
C      -2.36600000      -3.27700000       4.17600000 
C      -1.13200000      -3.90300000       4.51300000 
C       0.03300000      -3.59400000       3.79100000 
C       1.25000000      -4.21700000       4.11200000 
H      -0.00700000      -2.87100000       2.98300000 
C       2.43600000      -3.89800000       3.39000000 
C       1.29200000      -5.15900000       5.16100000 
C       0.13600000      -5.46100000       5.87800000 
H       2.23300000      -5.64200000       5.40600000 
C      -1.07200000      -4.84100000       5.56400000 
H       0.17600000      -6.18400000       6.68600000 
H      -1.97300000      -5.07600000       6.12100000 
C       3.46000000      -3.63100000       2.79200000 
C       4.67400000      -3.33400000       2.11800000 
C       5.76300000      -4.22500000       2.10700000 
C       4.83600000      -2.11400000       1.45000000 
H       5.68700000      -5.18000000       2.61400000 
C       6.92800000      -3.86300000       1.44700000 
C       7.03200000      -2.62700000       0.80000000 
H       7.77700000      -4.53600000       1.42800000 
N       5.97600000      -1.77400000       0.81800000 
C       8.28600000      -2.23300000       0.07500000 
H       4.03000000      -1.39000000       1.43500000 
H       8.11200000      -2.20900000      -1.00600000 
H       8.62900000      -1.24000000       0.38300000 
H       9.08500000      -2.95000000       0.27400000 
N      -5.84600000      -2.03200000      -0.81600000 
C      -6.82200000      -2.93500000      -0.57800000 
C      -6.72100000      -4.24400000      -1.03300000 
H      -7.68300000      -2.58500000      -0.02200000 
C      -5.58500000      -4.64000000      -1.73200000 
H      -7.52600000      -4.94100000      -0.83200000 
C      -4.56000000      -3.70500000      -1.96600000 
H      -5.47900000      -5.65900000      -2.08900000 
C      -4.74400000      -2.39600000      -1.49100000 
C      -3.35800000      -4.04700000      -2.64200000 
H      -3.98900000      -1.63700000      -1.65400000 
C      -2.31600000      -4.33500000      -3.19600000 
C      -1.09100000      -4.66800000      -3.84200000 
C       0.06900000      -3.92100000      -3.57200000 
C       1.28000000      -4.24100000      -4.20700000 
H       0.02800000      -3.09500000      -2.87100000 
C       2.45500000      -3.48300000      -3.93200000 
C       1.32300000      -5.31500000      -5.12100000 
C       0.17200000      -6.05600000      -5.38300000 
H       2.25800000      -5.55900000      -5.61300000 
C      -1.03000000      -5.74400000      -4.75200000 
H       0.21300000      -6.88300000      -6.08500000 
H      -1.92600000      -6.32000000      -4.95600000 
C       3.45900000      -2.83800000      -3.70400000 
C       4.63300000      -2.07500000      -3.46600000 
C       5.62600000      -1.90000000      -4.44800000 
C       4.84300000      -1.46100000      -2.22600000 
H       5.51400000      -2.36400000      -5.42200000 
C       6.73800000      -1.12700000      -4.15500000 
C       6.88500000      -0.52000000      -2.90200000 
H       7.51200000      -0.97800000      -4.90000000 
N       5.92900000      -0.71100000      -1.95500000 
C       8.06900000       0.35700000      -2.61200000 
H       4.11700000      -1.58000000      -1.43000000 
H       8.85600000       0.18600000      -3.35000000 
H       8.48400000       0.17500000      -1.61700000 
H       7.78200000       1.41200000      -2.66600000 
N       5.84600000       2.03200000      -0.81600000 
C       6.82200000       2.93500000      -0.57800000 
C       6.72100000       4.24400000      -1.03300000 
H       7.68300000       2.58500000      -0.02200000 
C       5.58500000       4.64000000      -1.73200000 
H       7.52600000       4.94100000      -0.83200000 
C       4.56000000       3.70500000      -1.96600000 
H       5.47900000       5.65900000      -2.08900000 
C       4.74400000       2.39600000      -1.49100000 
C       3.35800000       4.04700000      -2.64200000 
H       3.98900000       1.63700000      -1.65400000 
C       2.31600000       4.33500000      -3.19600000 
C       1.09100000       4.66800000      -3.84200000 
C      -0.06900000       3.92100000      -3.57200000 
C      -1.28000000       4.24100000      -4.20700000 
H      -0.02800000       3.09500000      -2.87100000 
C      -2.45500000       3.48300000      -3.93200000 
C      -1.32300000       5.31500000      -5.12100000 
C      -0.17200000       6.05600000      -5.38300000 
H      -2.25800000       5.55900000      -5.61300000 
C       1.03000000       5.74400000      -4.75200000 
H      -0.21300000       6.88300000      -6.08500000 
H       1.92600000       6.32000000      -4.95600000 
C      -3.45900000       2.83800000      -3.70400000 
C      -4.63300000       2.07500000      -3.46600000 
C      -5.62600000       1.90000000      -4.44800000 
C      -4.84300000       1.46100000      -2.22600000 
H      -5.51400000       2.36400000      -5.42200000 
C      -6.73800000       1.12700000      -4.15500000 
C      -6.88500000       0.52000000      -2.90200000 
H      -7.51200000       0.97800000      -4.90000000 
N      -5.92900000       0.71100000      -1.95500000 
C      -8.06900000      -0.35700000      -2.61200000 
H      -4.11700000       1.58000000      -1.43000000 
H      -8.48400000      -0.17500000      -1.61700000 
H      -7.78200000      -1.41200000      -2.66600000 
H      -8.85600000      -0.18600000      -3.35000000 
N       5.90600000       0.94700000       1.84800000 
C       6.97900000       0.91800000       2.66700000 
C       6.93700000       1.49400000       3.93200000 
H       7.86900000       0.43000000       2.29100000 
C       5.76900000       2.11100000       4.36600000 
H       7.81700000       1.45600000       4.56300000 
C       4.64800000       2.13800000       3.51500000 
H       5.71300000       2.56800000       5.34800000 
C       4.76900000       1.53700000       2.25200000 
C       3.42200000       2.75100000       3.88400000 
H       3.93700000       1.54000000       1.55700000 
C       2.36600000       3.27700000       4.17600000 
C       1.13200000       3.90300000       4.51200000 
C      -0.03300000       3.59400000       3.79100000 
C      -1.25000000       4.21700000       4.11200000 
H       0.00700000       2.87100000       2.98300000 
C      -2.43600000       3.89800000       3.39000000 
C      -1.29200000       5.15900000       5.16100000 
C      -0.13600000       5.46100000       5.87800000 
H      -2.23300000       5.64200000       5.40600000 
C       1.07200000       4.84100000       5.56400000 
H      -0.17600000       6.18400000       6.68600000 
H       1.97300000       5.07600000       6.12100000 
C      -3.46000000       3.63100000       2.79200000 
C      -4.67400000       3.33400000       2.11800000 
C      -5.76300000       4.22500000       2.10700000 
C      -4.83600000       2.11400000       1.45000000 
H      -5.68700000       5.18000000       2.61400000 
C      -6.92800000       3.86300000       1.44700000 
C      -7.03200000       2.62700000       0.80000000 
H      -7.77700000       4.53600000       1.42800000 
N      -5.97600000       1.77400000       0.81800000 
C      -8.28600000       2.23300000       0.07500000 
H      -4.03000000       1.39000000       1.43500000 
H      -8.62900000       1.24000000       0.38300000 
H      -8.11200000       2.20900000      -1.00600000 
H      -9.08500000       2.95000000       0.27400000 
