150
This is an XYZ structure.
Pd       5.93300000       0.00000000       0.00000000 
Pd      -5.93300000       0.00000000       0.00000000 
N      -5.86600000       0.83100000       1.89200000 
C      -6.84100000       0.60700000       2.79900000 
C      -6.76900000       1.13600000       4.08300000 
H      -7.67800000       0.00100000       2.47700000 
C      -5.66500000       1.89800000       4.45000000 
H      -7.57300000       0.94300000       4.78400000 
C      -4.64000000       2.12100000       3.51000000 
H      -5.58300000       2.31500000       5.44700000 
C      -4.79400000       1.56800000       2.22900000 
C      -3.46800000       2.86300000       3.81500000 
H      -4.04100000       1.72300000       1.46500000 
C      -2.44700000       3.47500000       4.05600000 
C      -1.24200000       4.18300000       4.33400000 
C      -0.05500000       3.83100000       3.67000000 
C       1.13800000       4.52200000       3.93900000 
H      -0.06000000       3.02100000       2.94900000 
C       2.34500000       4.15400000       3.27600000 
C       1.13400000       5.57700000       4.87600000 
C      -0.04500000       5.92200000       5.53400000 
H       2.05500000       6.11100000       5.08000000 
C      -1.22900000       5.23400000       5.27400000 
H      -0.04100000       6.73300000       6.25500000 
H      -2.14600000       5.50300000       5.78800000 
C       3.38100000       3.84200000       2.72500000 
C       4.60700000       3.49900000       2.09600000 
C       5.71600000       4.36700000       2.09200000 
C       4.75900000       2.26000000       1.46000000 
H       5.64700000       5.33500000       2.57600000 
C       6.88700000       3.96900000       1.46600000 
C       6.97900000       2.72000000       0.84400000 
H       7.75000000       4.62500000       1.45300000 
N       5.90600000       1.88800000       0.85900000 
C       8.23600000       2.28800000       0.14400000 
H       3.94200000       1.54900000       1.44300000 
H       8.55200000       1.28700000       0.45600000 
H       8.08200000       2.26300000      -0.94000000 
H       9.04900000       2.98600000       0.35500000 
N       5.86600000      -0.83100000       1.89200000 
C       6.84100000      -0.60700000       2.79900000 
C       6.76900000      -1.13600000       4.08300000 
H       7.67800000      -0.00100000       2.47700000 
C       5.66500000      -1.89800000       4.45000000 
H       7.57300000      -0.94300000       4.78400000 
C       4.64000000      -2.12100000       3.51000000 
H       5.58300000      -2.31500000       5.44700000 
C       4.79400000      -1.56800000       2.22900000 
C       3.46800000      -2.86300000       3.81500000 
H       4.04100000      -1.72300000       1.46500000 
C       2.44700000      -3.47500000       4.05600000 
C       1.24200000      -4.18300000       4.33400000 
C       0.05500000      -3.83100000       3.67000000 
C      -1.13800000      -4.52200000       3.93900000 
H       0.06000000      -3.02100000       2.94900000 
C      -2.34500000      -4.15400000       3.27600000 
C      -1.13400000      -5.57700000       4.87600000 
C       0.04500000      -5.92200000       5.53400000 
H      -2.05500000      -6.11100000       5.08000000 
C       1.22900000      -5.23400000       5.27400000 
H       0.04100000      -6.73300000       6.25500000 
H       2.14600000      -5.50300000       5.78800000 
C      -3.38100000      -3.84200000       2.72500000 
C      -4.60700000      -3.49900000       2.09600000 
C      -5.71600000      -4.36700000       2.09200000 
C      -4.75900000      -2.26000000       1.46000000 
H      -5.64700000      -5.33500000       2.57600000 
C      -6.88700000      -3.96900000       1.46700000 
C      -6.97900000      -2.72000000       0.84400000 
H      -7.75000000      -4.62500000       1.45300000 
N      -5.90600000      -1.88800000       0.85900000 
C      -8.23600000      -2.28800000       0.14400000 
H      -3.94200000      -1.54900000       1.44300000 
H      -8.55200000      -1.28700000       0.45600000 
H      -8.08200000      -2.26300000      -0.94000000 
H      -9.04900000      -2.98600000       0.35500000 
N      -5.86600000      -0.83100000      -1.89200000 
C      -6.84100000      -0.60700000      -2.79900000 
C      -6.76900000      -1.13600000      -4.08300000 
H      -7.67800000      -0.00100000      -2.47700000 
C      -5.66500000      -1.89800000      -4.45000000 
H      -7.57300000      -0.94300000      -4.78400000 
C      -4.64000000      -2.12100000      -3.51000000 
H      -5.58300000      -2.31500000      -5.44700000 
C      -4.79400000      -1.56800000      -2.22900000 
C      -3.46800000      -2.86300000      -3.81500000 
H      -4.04100000      -1.72300000      -1.46500000 
C      -2.44700000      -3.47500000      -4.05600000 
C      -1.24200000      -4.18300000      -4.33400000 
C      -0.05500000      -3.83100000      -3.67000000 
C       1.13800000      -4.52200000      -3.93900000 
H      -0.06000000      -3.02100000      -2.94900000 
C       2.34500000      -4.15400000      -3.27600000 
C       1.13400000      -5.57700000      -4.87600000 
C      -0.04500000      -5.92200000      -5.53400000 
H       2.05500000      -6.11100000      -5.08000000 
C      -1.22900000      -5.23400000      -5.27400000 
H      -0.04100000      -6.73300000      -6.25500000 
H      -2.14600000      -5.50300000      -5.78800000 
C       3.38100000      -3.84200000      -2.72500000 
C       4.60700000      -3.49900000      -2.09600000 
C       5.71600000      -4.36700000      -2.09200000 
C       4.75900000      -2.26000000      -1.46000000 
H       5.64700000      -5.33500000      -2.57600000 
C       6.88700000      -3.96900000      -1.46600000 
C       6.97900000      -2.72000000      -0.84400000 
H       7.75000000      -4.62500000      -1.45300000 
N       5.90600000      -1.88800000      -0.85900000 
C       8.23600000      -2.28800000      -0.14400000 
H       3.94200000      -1.54900000      -1.44300000 
H       8.55200000      -1.28700000      -0.45600000 
H       9.04900000      -2.98600000      -0.35500000 
H       8.08200000      -2.26300000       0.94000000 
N       5.86600000       0.83100000      -1.89200000 
C       6.84100000       0.60700000      -2.79900000 
C       6.76900000       1.13600000      -4.08300000 
H       7.67800000       0.00100000      -2.47700000 
C       5.66500000       1.89800000      -4.45000000 
H       7.57300000       0.94300000      -4.78400000 
C       4.64000000       2.12100000      -3.51000000 
H       5.58300000       2.31500000      -5.44700000 
C       4.79400000       1.56800000      -2.22900000 
C       3.46800000       2.86300000      -3.81500000 
H       4.04100000       1.72300000      -1.46500000 
C       2.44700000       3.47500000      -4.05600000 
C       1.24200000       4.18300000      -4.33400000 
C       0.05500000       3.83100000      -3.67000000 
C      -1.13800000       4.52200000      -3.93900000 
H       0.06000000       3.02100000      -2.94900000 
C      -2.34500000       4.15400000      -3.27600000 
C      -1.13400000       5.57700000      -4.87600000 
C       0.04500000       5.92200000      -5.53400000 
H      -2.05500000       6.11100000      -5.08000000 
C       1.22900000       5.23400000      -5.27400000 
H       0.04100000       6.73300000      -6.25500000 
H       2.14600000       5.50300000      -5.78800000 
C      -3.38100000       3.84200000      -2.72500000 
C      -4.60700000       3.49900000      -2.09600000 
C      -5.71600000       4.36700000      -2.09200000 
C      -4.75900000       2.26000000      -1.46000000 
H      -5.64700000       5.33500000      -2.57600000 
C      -6.88700000       3.96900000      -1.46700000 
C      -6.97900000       2.72000000      -0.84400000 
H      -7.75000000       4.62500000      -1.45300000 
N      -5.90600000       1.88800000      -0.85900000 
C      -8.23600000       2.28800000      -0.14400000 
H      -3.94200000       1.54900000      -1.44300000 
H      -8.55200000       1.28700000      -0.45600000 
H      -8.08200000       2.26300000       0.94000000 
H      -9.04900000       2.98600000      -0.35500000 
