162
This is an XYZ structure.
N       4.95800000      -1.23800000       1.57200000 
N       4.57500000       2.25800000      -0.55600000 
C       3.79600000      -1.64400000       2.17900000 
C       3.38000000       2.35000000      -1.22400000 
H       2.97800000      -0.93400000       2.17300000 
H       2.74900000       1.47100000      -1.20100000 
C       3.67500000      -2.88300000       2.75000000 
C       3.00300000       3.49100000      -1.88100000 
H       2.73700000      -3.17100000       3.20800000 
H       2.04700000       3.52400000      -2.38800000 
C       4.77100000      -3.77900000       2.74100000 
C       3.86100000       4.61600000      -1.89600000 
C       4.70600000      -5.10400000       3.29000000 
C       3.52600000       5.85000000      -2.54900000 
C       5.85100000      -5.89500000       3.26800000 
C       4.44800000       6.89200000      -2.52700000 
H       5.80900000      -6.89600000       3.68400000 
H       4.20100000       7.82600000      -3.02100000 
C       7.05900000      -5.42700000       2.70400000 
C       5.69200000       6.76000000      -1.87000000 
C       7.13600000      -4.16900000       2.14500000 
C       6.02900000       5.59100000      -1.22300000 
H       8.05800000      -3.81200000       1.69700000 
H       6.98100000       5.48800000      -0.71100000 
C       5.99200000      -3.32900000       2.15300000 
C       5.11800000       4.50200000      -1.22600000 
C       6.01400000      -2.04100000       1.56700000 
C       5.41200000       3.28800000      -0.56200000 
H       6.90900000      -1.67700000       1.07200000 
H       6.34400000       3.17200000      -0.01800000 
C       3.47100000      -5.57600000       3.81000000 
C       2.26000000       5.96900000      -3.18300000 
C       2.36300000      -5.89500000       4.19700000 
C       1.14900000       5.95900000      -3.67800000 
C       1.04200000      -6.22200000       4.61900000 
C      -0.16000000       5.89300000      -4.23500000 
C      -0.03400000      -5.43000000       4.17800000 
C      -1.00500000       4.82500000      -3.88000000 
H       0.14900000      -4.59100000       3.51600000 
H      -0.65700000       4.07400000      -3.17900000 
C      -1.34400000      -5.71700000       4.59300000 
C      -2.29300000       4.72500000      -4.43000000 
C      -1.57700000      -6.80900000       5.45400000 
C      -2.73700000       5.70600000      -5.34100000 
H      -2.59000000      -7.03000000       5.77600000 
H      -3.73200000       5.62800000      -5.76700000 
C      -0.51100000      -7.59800000       5.88100000 
C      -1.90200000       6.76700000      -5.68500000 
H      -0.69600000      -8.44000000       6.54100000 
H      -2.25000000       7.52100000      -6.38500000 
C       0.79200000      -7.31500000       5.47300000 
C      -0.62200000       6.86800000      -5.14200000 
H       1.62100000      -7.92700000       5.81200000 
H       0.02800000       7.69300000      -5.41500000 
C      -2.42400000      -4.89500000       4.15300000 
C      -3.14300000       3.63700000      -4.07300000 
C      -3.33600000      -4.18300000       3.78200000 
C      -3.87600000       2.71400000      -3.77800000 
C      -4.41700000      -3.34500000       3.39800000 
C      -4.76700000       1.65000000      -3.47400000 
C      -4.41000000      -2.69300000       2.15300000 
C      -4.65800000       0.94700000      -2.26300000 
H      -3.59200000      -2.83000000       1.45600000 
H      -3.89200000       1.20100000      -1.54100000 
N      -5.41100000      -1.88400000       1.76800000 
N      -5.49900000      -0.05100000      -1.93800000 
C      -6.46400000      -1.67500000       2.58900000 
C      -6.47900000      -0.40800000      -2.79600000 
H      -7.23700000      -1.00800000       2.23100000 
H      -7.12600000      -1.22000000      -2.48800000 
C      -6.54800000      -2.29300000       3.83200000 
C      -6.65000000       0.23800000      -4.01500000 
H      -7.41000000      -2.10800000       4.46200000 
H      -7.45000000      -0.07500000      -4.67600000 
C      -5.52200000      -3.13500000       4.24500000 
C      -5.79400000       1.27600000      -4.36200000 
H      -5.56100000      -3.62800000       5.21000000 
H      -5.90900000       1.80100000      -5.30400000 
N       4.78000000      -0.55600000      -1.22600000 
N      -5.34900000       0.86800000       0.82300000 
C       3.68400000      -1.34600000      -1.45600000 
C      -4.19700000       1.26300000       1.45300000 
H       2.94300000      -1.37700000      -0.66700000 
H      -3.38700000       0.54500000       1.46400000 
C       3.53600000      -2.05700000      -2.61900000 
C      -4.08000000       2.50000000       2.03300000 
H       2.65200000      -2.66600000      -2.76600000 
H      -3.15200000       2.77900000       2.51800000 
C       4.53700000      -1.99800000      -3.61900000 
C      -5.16800000       3.40600000       2.00100000 
C       4.45200000      -2.71100000      -4.86200000 
C      -5.12000000       4.71700000       2.58400000 
C       5.50100000      -2.60100000      -5.77100000 
C      -6.25200000       5.52500000       2.51000000 
H       5.44200000      -3.13900000      -6.71100000 
H      -6.22100000       6.51500000       2.95200000 
C       6.63300000      -1.80100000      -5.49900000 
C      -7.43400000       5.08500000       1.87300000 
C       6.73100000      -1.09900000      -4.31700000 
C      -7.50000000       3.83500000       1.29800000 
H       7.59600000      -0.47800000      -4.10600000 
H      -8.40400000       3.49300000       0.80400000 
C       5.68500000      -1.18900000      -3.36100000 
C      -6.36900000       2.97900000       1.35500000 
C       5.74200000      -0.48200000      -2.13800000 
C      -6.39100000       1.69000000       0.77600000 
H       6.59000000       0.15600000      -1.91100000 
H      -7.27800000       1.33400000       0.26100000 
C       3.30400000      -3.49900000      -5.14300000 
C      -3.92900000       5.16700000       3.21400000 
C       2.29000000      -4.14500000      -5.32500000 
C      -2.88300000       5.50300000       3.73500000 
C       1.08500000      -4.88100000      -5.51000000 
C      -1.64600000       5.87100000       4.33600000 
C      -0.02900000      -4.59800000      -4.70200000 
C      -0.49100000       5.11800000       4.06300000 
H       0.03400000      -3.81900000      -3.94900000 
H      -0.54800000       4.27000000       3.39000000 
C      -1.22500000      -5.31800000      -4.86200000 
C       0.73600000       5.45700000       4.65700000 
C      -1.30200000      -6.33000000      -5.84100000 
C       0.80300000       6.56000000       5.53300000 
H      -2.22500000      -6.88600000      -5.96300000 
H       1.75100000       6.82000000       5.99300000 
C      -0.19700000      -6.60500000      -6.64500000 
C      -0.34200000       7.30900000       5.79800000 
H      -0.26200000      -7.38400000      -7.39900000 
H      -0.28400000       8.16000000       6.47000000 
C       0.99000000      -5.89200000      -6.48900000 
C      -1.56100000       6.97600000       5.20900000 
H       1.84900000      -6.11000000      -7.11500000 
H      -2.45100000       7.55900000       5.42000000 
C      -2.34400000      -5.01700000      -4.03300000 
C       1.89500000       4.67900000       4.37000000 
C      -3.28600000      -4.74600000      -3.31500000 
C       2.86900000       4.00000000       4.11300000 
C      -4.37700000      -4.42300000      -2.46600000 
C       3.98800000       3.18800000       3.78900000 
C      -4.41500000      -3.17600000      -1.82000000 
C       3.96500000       2.41000000       2.62100000 
H      -3.63000000      -2.44500000      -1.97200000 
H       3.10900000       2.43200000       1.95800000 
N      -5.41900000      -2.83000000      -0.99700000 
N       4.99000000       1.61500000       2.27100000 
C      -6.43400000      -3.69200000      -0.77000000 
C       6.08700000       1.54700000       3.05400000 
H      -7.21200000      -3.36300000      -0.09200000 
H       6.87800000       0.88300000       2.72800000 
C      -6.47200000      -4.94100000      -1.38100000 
C       6.18900000       2.29400000       4.22300000 
H      -7.30400000      -5.60600000      -1.18100000 
H       7.08600000       2.22000000       4.82700000 
C      -5.44100000      -5.31600000      -2.23500000 
C       5.13800000       3.12400000       4.59900000 
H      -5.44600000      -6.28600000      -2.72100000 
H       5.19300000       3.71500000       5.50700000 
H      -8.29200000       5.74700000       1.83800000 
H       6.38200000       7.59700000      -1.87500000 
H       7.42700000      -1.74100000      -6.23600000 
H       7.92800000      -6.07600000       2.70500000 
Pd      -5.40200000      -0.97600000      -0.08700000 
Pd       4.88800000       0.53000000       0.51800000 
