162
This is an XYZ structure.
Pd       5.40900000      -0.10700000       0.76800000 
Pd      -5.40900000      -0.10700000      -0.76800000 
N       5.18100000      -1.44800000      -0.77600000 
N      -5.15700000       1.44700000       0.56000000 
C       3.93100000      -1.89400000      -1.11700000 
C      -3.90800000       1.73000000       1.04500000 
H       3.11000000      -1.52900000      -0.51100000 
H      -3.09800000       1.11100000       0.67900000 
C       3.73200000      -2.75700000      -2.16400000 
C      -3.69300000       2.74300000       1.94400000 
H       2.72700000      -3.08500000      -2.40700000 
H      -2.69000000       2.93700000       2.30600000 
C       4.83500000      -3.22000000      -2.92200000 
C      -4.77800000       3.53300000       2.39500000 
C       4.70900000      -4.11700000      -4.03500000 
C      -4.63600000       4.61000000       3.33400000 
C       5.86200000      -4.52700000      -4.70100000 
C      -5.76900000       5.32700000       3.70900000 
H       5.77000000      -5.20700000      -5.54100000 
H      -5.66500000       6.14200000       4.41900000 
C       7.14100000      -4.07400000      -4.31100000 
C      -7.04500000       5.01800000       3.18900000 
C       7.28600000      -3.20300000      -3.25300000 
C      -7.20700000       3.98900000       2.28900000 
H       8.26600000      -2.84600000      -2.95100000 
H      -8.18500000       3.74500000       1.88600000 
C       6.13600000      -2.76500000      -2.54700000 
C      -6.07700000       3.23300000       1.88000000 
C       6.23900000      -1.86700000      -1.46000000 
C      -6.19800000       2.16800000       0.95900000 
H       7.20900000      -1.48500000      -1.15800000 
H      -7.16700000       1.91100000       0.54500000 
C       3.42600000      -4.56300000      -4.45100000 
C      -3.35800000       4.92600000       3.86700000 
C       2.31500000      -4.91600000      -4.79600000 
C      -2.25200000       5.17100000       4.31000000 
C       1.01700000      -5.32700000      -5.21300000 
C      -0.96300000       5.46500000       4.84000000 
C      -0.12400000      -4.71300000      -4.67000000 
C       0.15800000       4.72900000       4.42100000 
H      -0.01400000      -3.92500000      -3.93200000 
H       0.04100000       3.93700000       3.68900000 
C      -1.40700000      -5.11200000      -5.08100000 
C       1.43000000       5.01400000       4.94600000 
C      -1.54400000      -6.13700000      -6.04100000 
C       1.57500000       6.04500000       5.89800000 
H      -2.53600000      -6.44400000      -6.35500000 
H       2.55800000       6.26300000       6.30200000 
C      -0.41000000      -6.74400000      -6.57700000 
C       0.46200000       6.77500000       6.31100000 
H      -0.52000000      -7.53200000      -7.31700000 
H       0.57900000       7.56800000       7.04300000 
C       0.86400000      -6.34900000      -6.17300000 
C      -0.80100000       6.49400000       5.79100000 
H       1.74500000      -6.82300000      -6.59200000 
H      -1.66700000       7.06200000       6.11400000 
C      -2.56100000      -4.48600000      -4.52900000 
C       2.56600000       4.26800000       4.52000000 
C      -3.54900000      -3.95700000      -4.06000000 
C       3.54500000       3.64300000       4.16300000 
C      -4.71100000      -3.35700000      -3.50700000 
C       4.69300000       2.92100000       3.74500000 
C      -4.59400000      -2.26300000      -2.63400000 
C       4.58700000       1.95400000       2.73200000 
H      -3.62200000      -1.85600000      -2.38000000 
H       3.63400000       1.74500000       2.26100000 
N      -5.66700000      -1.67800000      -2.07900000 
N       5.64900000       1.25600000       2.29800000 
C      -6.90500000      -2.13800000      -2.35400000 
C       6.86500000       1.47200000       2.84000000 
H      -7.73300000      -1.63800000      -1.86700000 
H       7.68700000       0.88500000       2.44700000 
C      -7.10400000      -3.21200000      -3.21500000 
C       7.05200000       2.41100000       3.84900000 
H      -8.11200000      -3.55500000      -3.41600000 
H       8.04300000       2.56000000       4.26200000 
C      -6.00500000      -3.83100000      -3.79900000 
C       5.96500000       3.14400000       4.30900000 
H      -6.13100000      -4.67300000      -4.47100000 
H       6.08400000       3.88400000       5.09300000 
N       5.15700000       1.44700000      -0.56000000 
N      -5.18100000      -1.44800000       0.77600000 
C       3.90800000       1.73000000      -1.04500000 
C      -3.93100000      -1.89400000       1.11700000 
H       3.09800000       1.11100000      -0.67900000 
H      -3.11000000      -1.52900000       0.51100000 
C       3.69300000       2.74300000      -1.94400000 
C      -3.73200000      -2.75700000       2.16400000 
H       2.69000000       2.93700000      -2.30600000 
H      -2.72700000      -3.08500000       2.40700000 
C       4.77800000       3.53300000      -2.39500000 
C      -4.83500000      -3.22000000       2.92200000 
C       4.63600000       4.61000000      -3.33400000 
C      -4.70900000      -4.11700000       4.03500000 
C       5.76900000       5.32700000      -3.70900000 
C      -5.86200000      -4.52700000       4.70100000 
H       5.66500000       6.14200000      -4.41900000 
H      -5.77000000      -5.20700000       5.54100000 
C       7.04500000       5.01800000      -3.18900000 
C      -7.14100000      -4.07400000       4.31100000 
C       7.20700000       3.98900000      -2.28900000 
C      -7.28600000      -3.20300000       3.25400000 
H       8.18500000       3.74500000      -1.88600000 
H      -8.26600000      -2.84600000       2.95100000 
C       6.07700000       3.23300000      -1.88000000 
C      -6.13600000      -2.76500000       2.54700000 
C       6.19800000       2.16800000      -0.95900000 
C      -6.23900000      -1.86700000       1.46000000 
H       7.16700000       1.91100000      -0.54500000 
H      -7.20900000      -1.48500000       1.15800000 
C       3.35800000       4.92600000      -3.86700000 
C      -3.42600000      -4.56300000       4.45100000 
C       2.25200000       5.17100000      -4.31000000 
C      -2.31500000      -4.91600000       4.79600000 
C       0.96300000       5.46500000      -4.84000000 
C      -1.01700000      -5.32700000       5.21300000 
C      -0.15800000       4.72900000      -4.42100000 
C       0.12400000      -4.71300000       4.67000000 
H      -0.04100000       3.93700000      -3.68900000 
H       0.01400000      -3.92500000       3.93200000 
C      -1.43000000       5.01400000      -4.94600000 
C       1.40700000      -5.11200000       5.08100000 
C      -1.57500000       6.04500000      -5.89800000 
C       1.54400000      -6.13700000       6.04000000 
H      -2.55800000       6.26300000      -6.30200000 
H       2.53600000      -6.44400000       6.35500000 
C      -0.46200000       6.77500000      -6.31100000 
C       0.41000000      -6.74400000       6.57700000 
H      -0.57900000       7.56800000      -7.04300000 
H       0.52000000      -7.53200000       7.31600000 
C       0.80100000       6.49400000      -5.79100000 
C      -0.86400000      -6.34900000       6.17300000 
H       1.66700000       7.06200000      -6.11400000 
H      -1.74500000      -6.82300000       6.59200000 
C      -2.56600000       4.26800000      -4.52000000 
C       2.56100000      -4.48600000       4.52900000 
C      -3.54500000       3.64300000      -4.16300000 
C       3.54900000      -3.95700000       4.06000000 
C      -4.69300000       2.92100000      -3.74500000 
C       4.71100000      -3.35700000       3.50700000 
C      -4.58700000       1.95400000      -2.73200000 
C       4.59400000      -2.26300000       2.63400000 
H      -3.63400000       1.74500000      -2.26100000 
H       3.62200000      -1.85600000       2.38000000 
N      -5.64900000       1.25600000      -2.29800000 
N       5.66700000      -1.67800000       2.07900000 
C      -6.86500000       1.47200000      -2.84000000 
C       6.90500000      -2.13800000       2.35400000 
H      -7.68700000       0.88500000      -2.44700000 
H       7.73300000      -1.63800000       1.86700000 
C      -7.05200000       2.41100000      -3.84900000 
C       7.10400000      -3.21200000       3.21500000 
H      -8.04300000       2.56000000      -4.26200000 
H       8.11200000      -3.55500000       3.41600000 
C      -5.96500000       3.14400000      -4.30900000 
C       6.00500000      -3.83100000       3.79900000 
H      -6.08400000       3.88400000      -5.09300000 
H       6.13100000      -4.67300000       4.47100000 
H      -8.01300000      -4.41800000       4.85700000 
H      -7.90100000       5.60400000       3.50900000 
H       7.90100000       5.60400000      -3.50900000 
H       8.01300000      -4.41800000      -4.85700000 
