130
This is an XYZ structure.
N       4.07300000      -2.78200000      -1.28900000 
N      -4.23100000       1.91500000       1.86200000 
C       2.83400000      -2.75300000      -1.80500000 
C      -2.94900000       2.23000000       2.10700000 
H       2.22900000      -1.88200000      -1.58700000 
H      -2.23200000       2.03800000       1.31900000 
C       2.32900000      -3.80200000      -2.59200000 
C      -2.53300000       2.79400000       3.32300000 
C       3.17800000      -4.89500000      -2.85200000 
C      -3.51200000       3.02800000       4.30600000 
C       4.46200000      -4.90200000      -2.32000000 
C      -4.83600000       2.69200000       4.03900000 
C       4.88300000      -3.83400000      -1.53300000 
C      -5.17000000       2.13700000       2.80700000 
H       5.86800000      -3.80700000      -1.08300000 
H      -6.18700000       1.86100000       2.55900000 
C       0.99500000      -3.74100000      -3.07400000 
C      -1.15900000       3.11900000       3.49000000 
C      -0.15800000      -3.69200000      -3.45400000 
C       0.02300000       3.39300000       3.53400000 
C      -1.51700000      -3.63900000      -3.87400000 
C       1.40700000       3.73800000       3.53500000 
C      -2.32000000      -2.54200000      -3.51300000 
C       2.36600000       2.79400000       3.12300000 
H      -1.87500000      -1.73000000      -2.94700000 
H       2.03300000       1.79100000       2.87800000 
C      -3.66500000      -2.48100000      -3.90000000 
C       3.72300000       3.13400000       3.05300000 
C      -4.20200000      -3.53000000      -4.66600000 
C       4.11300000       4.43800000       3.41100000 
H      -5.24800000      -3.50900000      -4.95400000 
H       5.15300000       4.73600000       3.33100000 
C      -3.40700000      -4.61700000      -5.03400000 
C       3.16900000       5.37000000       3.84200000 
H      -3.83700000      -5.42300000      -5.62000000 
H       3.48800000       6.37100000       4.11400000 
C      -2.07200000      -4.68100000      -4.64300000 
C       1.82000000       5.03100000       3.90700000 
H      -1.45400000      -5.52700000      -4.92400000 
H       1.08200000       5.75800000       4.23000000 
C      -4.50800000      -1.32900000      -3.50200000 
C       4.73400000       2.15000000       2.59600000 
C      -4.35800000      -0.74600000      -2.24000000 
C       4.39900000       1.15200000       1.67200000 
H      -3.64700000      -1.13800000      -1.52200000 
H       3.39600000       1.06800000       1.27200000 
N      -5.09000000       0.31000000      -1.83800000 
N       5.28900000       0.24900000       1.22300000 
C      -6.02400000       0.83300000      -2.65700000 
C       6.56800000       0.29500000       1.64600000 
H      -6.58400000       1.68100000      -2.28300000 
H       7.24500000      -0.44600000       1.23700000 
C      -6.24800000       0.30000000      -3.92100000 
C       6.98400000       1.25000000       2.56600000 
H      -7.00500000       0.74000000      -4.56000000 
H       8.01500000       1.25700000       2.90100000 
C      -5.48400000      -0.78200000      -4.35000000 
C       6.06300000       2.17300000       3.05100000 
H      -5.63000000      -1.19000000      -5.34500000 
H       6.37300000       2.90200000       3.79200000 
N       4.17200000      -2.40800000       1.58400000 
N      -4.05600000       2.86300000      -0.87100000 
C       2.87300000      -2.57300000       1.88100000 
C      -2.82000000       2.90700000      -1.39400000 
H       2.15300000      -2.08200000       1.23800000 
C       2.45200000      -3.34800000       2.97400000 
C      -2.27400000       4.08700000      -1.92400000 
C       3.44200000      -3.96100000       3.76700000 
C      -3.08400000       5.24000000      -1.92700000 
C       4.78200000      -3.78100000       3.44200000 
C      -4.36800000       5.17200000      -1.39900000 
C       5.11900000      -2.99800000       2.34300000 
C      -4.82600000       3.97100000      -0.86600000 
H       6.14900000      -2.83500000       2.05200000 
H      -5.81000000       3.87900000      -0.42100000 
C       1.06700000      -3.49100000       3.25100000 
C      -0.93700000       4.09600000      -2.39900000 
C      -0.11800000      -3.60800000       3.49300000 
C       0.22400000       4.10700000      -2.75900000 
C      -1.50800000      -3.72100000       3.77600000 
C       1.59400000       4.12800000      -3.14600000 
C      -2.44700000      -3.11200000       2.92300000 
C       2.39600000       2.98900000      -2.95200000 
H      -2.08900000      -2.59700000       2.03700000 
H       1.94000000       2.09100000      -2.54800000 
C      -3.81800000      -3.18900000       3.19600000 
C       3.75300000       3.00200000      -3.29800000 
C      -4.24700000      -3.89900000       4.33100000 
C       4.30200000       4.17000000      -3.85600000 
H      -5.30500000      -3.94800000       4.57000000 
H       5.35700000       4.20400000      -4.10800000 
C      -3.32200000      -4.51500000       5.17400000 
C       3.50800000       5.29900000      -4.06100000 
H      -3.66800000      -5.05500000       6.04900000 
H       3.94700000       6.19500000      -4.48800000 
C      -1.95700000      -4.43000000       4.90800000 
C       2.16100000       5.28900000      -3.70800000 
H      -1.23500000      -4.90100000       5.56600000 
H       1.54300000       6.16800000      -3.85900000 
C      -4.79700000      -2.51800000       2.30800000 
C       4.59900000       1.80700000      -3.07000000 
C      -4.48200000      -1.29000000       1.71800000 
C       4.40400000       1.00600000      -1.93900000 
H      -3.53600000      -0.80200000       1.91600000 
H       3.65000000       1.25400000      -1.20300000 
N      -5.32600000      -0.63800000       0.89900000 
N       5.13600000      -0.09500000      -1.69300000 
C      -6.54200000      -1.16000000       0.63600000 
C       6.11600000      -0.45400000      -2.54600000 
H      -7.18200000      -0.59600000      -0.03100000 
H       6.67300000      -1.35000000      -2.30300000 
C      -6.94000000      -2.36800000       1.19500000 
C       6.38700000       0.29600000      -3.68400000 
H      -7.92200000      -2.76500000       0.96500000 
H       7.18000000      -0.01700000      -4.35300000 
C      -6.06300000      -3.05600000       2.03000000 
C       5.62300000       1.42900000      -3.95300000 
H      -6.35200000      -4.01400000       2.44900000 
H       5.80700000       2.00600000      -4.85300000 
Pd       4.68800000      -1.25300000      -0.05000000 
Pd      -4.71400000       1.11900000       0.01700000 
H      -5.61400000       2.85800000       4.77500000 
H      -3.23000000       3.46500000       5.25700000 
H       2.82300000      -5.72100000      -3.45800000 
H       5.13800000      -5.72900000      -2.50000000 
H      -2.69800000       6.16900000      -2.33300000 
H      -5.01400000       6.04200000      -1.38400000 
H      -2.24800000       1.98600000      -1.38500000 
H       5.56700000      -4.24100000       4.03000000 
H       3.15200000      -4.56700000       4.61800000 
