130
This is an XYZ structure.
N       4.65700000      -1.65900000       1.72300000 
N       4.85000000       1.21100000      -1.22400000 
C       3.44000000      -2.19900000       1.89600000 
C       3.66300000       1.70000000      -1.61700000 
H       2.63400000      -1.80900000       1.28500000 
H       2.78500000       1.35500000      -1.08300000 
C       3.20600000      -3.23800000       2.81000000 
C       3.54200000       2.60700000      -2.68100000 
C       4.29600000      -3.70100000       3.57100000 
C       4.72300000       3.01600000      -3.32900000 
C       5.54700000      -3.12100000       3.38800000 
C       5.94600000       2.51100000      -2.89800000 
C       5.70100000      -2.10300000       2.45300000 
C       5.98200000       1.60300000      -1.84300000 
H       6.66000000      -1.63300000       2.27300000 
H       6.90700000       1.17200000      -1.48200000 
C       1.90300000      -3.79600000       2.90000000 
C       2.24800000       3.04600000      -3.06400000 
C       0.77900000      -4.25700000       2.89100000 
C       1.11200000       3.36400000      -3.35600000 
C      -0.52800000      -4.82200000       2.82700000 
C      -0.22200000       3.72500000      -3.70000000 
C      -1.64600000      -3.99400000       2.61800000 
C      -1.28100000       3.41500000      -2.82600000 
H      -1.49800000      -2.92000000       2.57500000 
H      -1.06000000       2.92400000      -1.88300000 
C      -2.92900000      -4.54300000       2.49100000 
C      -2.59600000       3.76900000      -3.14900000 
C      -3.08000000      -5.93800000       2.58200000 
C      -2.84700000       4.43400000      -4.36200000 
H      -4.05900000      -6.38900000       2.45000000 
H      -3.86500000       4.69200000      -4.63500000 
C      -1.97800000      -6.76200000       2.81100000 
C      -1.80100000       4.74300000      -5.23100000 
H      -2.11400000      -7.83600000       2.87800000 
H      -2.01000000       5.25200000      -6.16700000 
C      -0.70400000      -6.21500000       2.93500000 
C      -0.49100000       4.39600000      -4.90900000 
H       0.15900000      -6.85300000       3.10200000 
H       0.32600000       4.63600000      -5.58200000 
C      -4.11100000      -3.67800000       2.25300000 
C      -3.71300000       3.46100000      -2.22400000 
C      -3.99800000      -2.48400000       1.52900000 
C      -3.76300000       2.24300000      -1.53700000 
H      -3.04800000      -2.15700000       1.12600000 
H      -2.99600000       1.49000000      -1.68100000 
N      -5.05200000      -1.68600000       1.28200000 
N      -4.76000000       1.92900000      -0.69100000 
C      -6.28000000      -2.03600000       1.71600000 
C      -5.76400000       2.80700000      -0.48300000 
H      -7.09700000      -1.37000000       1.46600000 
H      -6.53900000       2.50900000       0.21300000 
C      -6.47800000      -3.20100000       2.44700000 
C      -5.79500000       4.03400000      -1.13200000 
H      -7.47300000      -3.45100000       2.79600000 
H      -6.61300000       4.71900000      -0.94300000 
C      -5.38800000      -4.01900000       2.72700000 
C      -4.76400000       4.36600000      -2.00600000 
H      -5.52800000      -4.91500000       3.32200000 
H      -4.76200000       5.33000000      -2.50500000 
N      -4.85500000      -0.86300000      -1.53300000 
N      -4.63900000       1.10600000       2.07900000 
C      -3.66900000      -1.20700000      -2.05900000 
C      -3.43400000       1.63800000       2.34200000 
H      -2.78500000      -1.00300000      -1.46600000 
C      -3.55100000      -1.79700000      -3.32700000 
C      -3.18600000       2.39000000       3.50000000 
C      -4.73600000      -2.04000000      -4.04700000 
C      -4.24700000       2.57000000       4.40700000 
C      -5.95800000      -1.68800000      -3.48200000 
C      -5.48500000       2.00200000       4.12500000 
C      -5.99000000      -1.09600000      -2.22300000 
C      -5.65400000       1.27600000       2.95000000 
H      -6.91700000      -0.79500000      -1.75000000 
H      -6.60400000       0.82700000       2.68700000 
C      -2.25500000      -2.10100000      -3.82000000 
C      -1.89500000       2.95300000       3.69000000 
C      -1.11500000      -2.31700000      -4.18100000 
C      -0.78100000       3.43100000       3.77100000 
C       0.22200000      -2.56400000      -4.60400000 
C       0.52300000       4.00200000       3.82800000 
C       1.27500000      -2.51400000      -3.67000000 
C       1.64200000       3.23400000       3.45700000 
H       1.04700000      -2.30800000      -2.62900000 
H       1.49400000       2.19400000       3.18600000 
C       2.59300000      -2.76600000      -4.06900000 
C       2.92700000       3.79100000       3.46700000 
C       2.85300000      -3.06400000      -5.41800000 
C       3.08200000       5.13400000       3.85700000 
H       3.87400000      -3.23700000      -5.74500000 
H       4.06600000       5.59300000       3.83900000 
C       1.81400000      -3.11200000      -6.34700000 
C       1.97800000       5.89500000       4.23900000 
H       2.03100000      -3.33700000      -7.38700000 
H       2.11500000       6.93000000       4.53600000 
C       0.50200000      -2.86800000      -5.95100000 
C       0.70100000       5.34000000       4.23000000 
H      -0.31000000      -2.90700000      -6.67000000 
H      -0.16100000       5.93200000       4.52000000 
C       3.70200000      -2.73700000      -3.08600000 
C       4.10600000       2.98300000       3.07300000 
C       3.75300000      -1.75900000      -2.08600000 
C       4.00500000       2.00500000       2.07700000 
H       2.99100000      -0.99200000      -2.02100000 
H       3.07000000       1.82700000       1.55900000 
N       4.74500000      -1.70200000      -1.17900000 
N       5.05200000       1.25100000       1.69500000 
C       5.74200000      -2.61100000      -1.21900000 
C       6.26100000       1.44300000       2.26000000 
H       6.51300000      -2.52500000      -0.46400000 
H       7.07400000       0.82200000       1.90200000 
C       5.77100000      -3.60900000      -2.18400000 
C       6.44800000       2.39700000       3.25200000 
H       6.58400000      -4.32500000      -2.18800000 
H       7.42900000       2.52300000       3.69500000 
C       4.74600000      -3.67500000      -3.12300000 
C       5.36500000       3.16400000       3.66900000 
H       4.74300000      -4.46100000      -3.87100000 
H       5.49200000       3.89200000       4.46300000 
Pd      -4.84200000       0.10700000       0.28400000 
Pd       4.84400000      -0.21500000       0.26000000 
H       6.87200000       2.80800000      -3.37700000 
H       4.67100000       3.71500000      -4.15700000 
H       4.15400000      -4.50400000       4.28700000 
H       6.40700000      -3.45400000       3.95800000 
H      -4.09300000       3.14700000       5.31200000 
H      -6.32300000       2.12100000       4.80200000 
H      -2.65400000       1.47300000       1.60900000 
H      -6.88800000      -1.86300000      -4.01100000 
H      -4.68800000      -2.49400000      -5.03100000 
