142
This is an XYZ structure.
N       5.15500000      -2.21600000      -0.12400000 
N       5.22800000       1.60600000       1.42000000 
C       3.92600000      -2.60000000      -0.50600000 
C       4.00700000       2.16000000       1.49300000 
H       3.14000000      -1.85500000      -0.46300000 
H       3.17700000       1.59200000       1.08900000 
C       3.65100000      -3.90800000      -0.93300000 
C       3.78400000       3.41700000       2.07400000 
C       4.72100000      -4.82200000      -0.97900000 
C       4.89900000       4.10700000       2.58800000 
C       5.98800000      -4.40600000      -0.58500000 
C       6.15800000       3.52300000       2.49900000 
C       6.17500000      -3.09800000      -0.15000000 
C       6.29600000       2.26900000       1.91000000 
H       7.13800000      -2.74000000       0.19000000 
H       7.25700000       1.77700000       1.82700000 
C       2.32300000      -4.26800000      -1.28000000 
C       2.46100000       3.92700000       2.12300000 
C       1.17700000      -4.56900000      -1.55000000 
C       1.30900000       4.31300000       2.13800000 
C      -0.14700000      -4.96200000      -1.89900000 
C      -0.03200000       4.79300000       2.14700000 
C      -1.26200000      -4.27300000      -1.38700000 
C      -0.99500000       4.22400000       1.29100000 
H      -1.10200000      -3.44800000      -0.70000000 
H      -0.70600000       3.41700000       0.62500000 
C      -2.56100000      -4.66500000      -1.73300000 
C      -2.29900000       4.72800000       1.25900000 
C      -2.73200000      -5.75700000      -2.60400000 
C      -2.64500000       5.79700000       2.10400000 
H      -3.73100000      -6.05200000      -2.90900000 
H      -3.66000000       6.18300000       2.09500000 
C      -1.63100000      -6.44700000      -3.10800000 
C      -1.69900000       6.35200000       2.96600000 
H      -1.78200000      -7.28500000      -3.78200000 
H      -1.98000000       7.17200000       3.62000000 
C      -0.34100000      -6.06000000      -2.76100000 
C      -0.39600000       5.86200000       2.99000000 
H       0.52100000      -6.59100000      -3.15200000 
H       0.34700000       6.29900000       3.65000000 
C      -3.75400000      -3.94600000      -1.22500000 
C      -3.30500000       4.18000000       0.31700000 
C      -3.76000000      -2.55900000      -1.07200000 
C      -3.50400000       2.80700000       0.17100000 
H      -2.87000000      -1.97800000      -1.28200000 
H      -2.93900000       2.09700000       0.76300000 
N      -4.85700000      -1.85700000      -0.71000000 
N      -4.42100000       2.28400000      -0.67200000 
C      -6.03000000      -2.49800000      -0.47200000 
C      -5.19200000       3.09700000      -1.44000000 
C      -7.26100000      -1.71000000      -0.13100000 
C      -6.19100000       2.50800000      -2.39600000 
C      -6.07600000      -3.89200000      -0.56500000 
C      -5.04200000       4.48200000      -1.33200000 
H      -7.01100000      -4.40000000      -0.35500000 
H      -5.66500000       5.12700000      -1.94100000 
C      -4.95300000      -4.61600000      -0.93500000 
C      -4.11200000       5.02600000      -0.45800000 
H      -5.00600000      -5.69700000      -1.00200000 
H      -3.99800000       6.10200000      -0.38400000 
N      -3.96900000       0.13800000      -2.61400000 
N       4.73700000      -1.05800000       2.45800000 
C      -2.74900000       0.64000000      -2.86600000 
C       3.43100000      -1.19500000       2.73400000 
H      -2.22900000       1.11400000      -2.04300000 
C      -2.15700000       0.56300000      -4.13700000 
C       2.97700000      -1.74000000       3.94500000 
C      -2.89000000      -0.05200000      -5.16800000 
C       3.94500000      -2.15500000       4.88100000 
C      -4.15400000      -0.56400000      -4.89000000 
C       5.29400000      -2.00500000       4.57800000 
C      -4.66700000      -0.46200000      -3.60200000 
C       5.66300000      -1.45100000       3.35600000 
H      -5.64100000      -0.85600000      -3.34100000 
H       6.70100000      -1.31400000       3.07700000 
C      -0.85300000       1.09900000      -4.33100000 
C       1.58500000      -1.85100000       4.19500000 
C       0.26200000       1.56500000      -4.45300000 
C       0.39300000      -1.93200000       4.41900000 
C       1.56900000       2.12300000      -4.58200000 
C      -0.99700000      -2.02300000       4.71300000 
C       2.64600000       1.56000000      -3.87500000 
C      -1.93300000      -1.28700000       3.96200000 
H       2.47100000       0.67800000      -3.26800000 
H      -1.58200000      -0.64800000       3.15800000 
C       3.93100000       2.10800000      -3.97600000 
C      -3.29600000      -1.34000000       4.27700000 
C       4.12900000       3.23000000      -4.79800000 
C      -3.72100000      -2.14600000       5.34700000 
H       5.11200000       3.68500000      -4.86600000 
H      -4.77800000      -2.20800000       5.58800000 
C       3.06500000       3.78600000      -5.50900000 
C      -2.79800000      -2.88500000       6.08800000 
H       3.23300000       4.65500000      -6.13800000 
H      -3.14100000      -3.50900000       6.90700000 
C       1.78700000       3.24200000      -5.40900000 
C      -1.44200000      -2.82700000       5.78200000 
H       0.95700000       3.67400000      -5.95700000 
H      -0.71900000      -3.39300000       6.36100000 
C       5.06700000       1.51800000      -3.22700000 
C      -4.28000000      -0.54100000       3.51000000 
C       4.88500000       0.98700000      -1.95100000 
C      -4.21300000      -0.45800000       2.12000000 
H       3.90800000       1.00200000      -1.48400000 
H      -3.45200000      -1.00300000       1.57500000 
N       5.88500000       0.44600000      -1.22200000 
N      -5.08400000       0.26000000       1.37500000 
C       7.14600000       0.40700000      -1.71600000 
C      -6.09200000       0.94300000       1.97700000 
C       8.26000000      -0.22300000      -0.92600000 
C      -7.05700000       1.75500000       1.16100000 
C       7.39600000       0.93000000      -2.99000000 
C      -6.21900000       0.88600000       3.36900000 
H       8.40700000       0.89100000      -3.38000000 
H      -7.02900000       1.43000000       3.84200000 
C       6.37100000       1.47600000      -3.74600000 
C      -5.32400000       0.15400000       4.13600000 
H       6.57700000       1.85700000      -4.74100000 
H      -5.42400000       0.13300000       5.21600000 
Pd      -4.65400000       0.22100000      -0.66600000 
Pd       5.33300000      -0.30200000       0.63400000 
H       7.03700000       4.02900000       2.88300000 
H       4.76800000       5.08100000       3.04700000 
H       4.54700000      -5.84000000      -1.31000000 
H       6.83100000      -5.08700000      -0.60000000 
H       3.63100000      -2.58300000       5.82700000 
H       6.06200000      -2.31200000       5.27800000 
H       2.72800000      -0.87000000       1.97500000 
H      -4.74400000      -1.04600000      -5.66100000 
H      -2.46600000      -0.12400000      -6.16300000 
H       9.19400000       0.31900000      -1.09600000 
H       8.41600000      -1.25600000      -1.25800000 
H       8.06000000      -0.23500000       0.14700000 
H      -8.13900000      -2.35800000      -0.14200000 
H      -7.42200000      -0.90200000      -0.85200000 
H      -7.18100000      -1.26700000       0.86500000 
H      -7.39900000       1.21400000       0.27600000 
H      -6.59400000       2.68900000       0.82900000 
H      -7.93200000       2.01200000       1.76200000 
H      -6.90800000       3.27000000      -2.70800000 
H      -6.74300000       1.67600000      -1.95200000 
H      -5.68800000       2.13200000      -3.29300000 
