186

Pd 0.046300 5.794500 0.103100
Pd 0.053300 -7.514400 0.007000
C 7.014800 -3.856500 -0.043700
C 6.595600 -4.991000 -0.039900
C 6.122900 -6.316900 -0.036300
C 7.012100 -7.378300 -0.046300
C 6.558600 -8.702000 -0.043400
C 5.217800 -8.987600 -0.031100
C 4.278600 -7.934400 -0.020800
C 2.890200 -8.163900 -0.009100
N 2.008300 -7.187400 0.000500
C 2.421900 -5.895500 -0.000100
C 3.747800 -5.564700 -0.011600
C 4.724300 -6.581500 -0.022800
H 8.072800 -7.177900 -0.056400
H 7.283000 -9.501900 -0.051300
H 4.872500 -10.009200 -0.029300
H 2.508600 -9.182400 -0.007800
H 1.633100 -5.144500 0.009100
H 4.065800 -4.534500 -0.012500
C 7.508600 -2.536500 -0.048100
C 8.908400 -2.319000 -0.077300
C 9.406800 -1.048900 -0.081700
C 8.546500 0.070500 -0.057100
C 9.037600 1.394400 -0.060500
C 8.186700 2.460800 -0.036000
C 6.786200 2.251300 -0.007000
C 6.278000 0.968500 -0.003200
C 7.140400 -0.143300 -0.027800
C 6.645400 -1.461200 -0.024000
H 9.571500 -3.171200 -0.096100
H 10.474300 -0.882500 -0.104000
H 10.106700 1.549800 -0.082800
H 8.568700 3.470600 -0.038700
H 5.211000 0.808300 0.019000
H 5.578400 -1.621600 -0.001500
C 5.913900 3.356700 0.017500
C 5.151600 4.295100 0.038600
C 4.253400 5.377600 0.061500
C 4.697600 6.707200 0.070100
C 3.763200 7.727400 0.091100
C 2.413100 7.411400 0.102700
N 1.993900 6.142400 0.094800
C 2.874400 5.146300 0.075200
H 5.754900 6.921300 0.060100
H 4.076800 8.758700 0.098200
H 1.643400 8.181100 0.118700
H 2.479800 4.132800 0.069900
C -0.271100 2.621400 7.149900
C -0.297500 3.762500 6.749500
C -0.349800 5.066700 6.222100
C -0.562200 6.167000 7.033800
C -0.641500 7.455900 6.493600
C -0.519800 7.666500 5.144000
C -0.297500 6.571500 4.282000
C -0.176100 6.717600 2.886100
N 0.039100 5.699000 2.082500
C 0.165000 4.446200 2.589600
C 0.049300 4.194700 3.926500
C -0.198500 5.256900 4.819200
H -0.672100 6.026800 8.098500
H -0.807200 8.290000 7.158100
H -0.591200 8.661200 4.733800
H -0.261600 7.700800 2.431100
H 0.366100 3.654200 1.867900
H 0.145600 3.194700 4.317600
C -0.245000 1.285600 7.598700
C -0.256900 1.005500 8.986700
C -0.235300 -0.286300 9.425900
C -0.201200 -1.364900 8.515400
C -0.177100 -2.709200 8.946400
C -0.140500 -3.734800 8.047700
C -0.128600 -3.463200 6.656600
C -0.155400 -2.159800 6.206500
C -0.190300 -1.088700 7.119900
C -0.212500 0.250300 6.687000
H -0.282700 1.826300 9.687900
H -0.244000 -0.501700 10.484900
H -0.186600 -2.913000 10.007600
H -0.120700 -4.760400 8.384200
H -0.146400 -1.950800 5.147800
H -0.207500 0.459900 5.628300
C -0.079500 -4.543400 5.753800
C -0.029000 -5.480400 4.990800
C 0.054700 -6.617800 4.166800
C 0.219700 -7.891000 4.731700
C 0.315600 -8.990700 3.898900
C 0.246500 -8.806000 2.527300
N 0.082300 -7.591800 1.991100
C -0.013200 -6.520000 2.773200
H 0.272900 -7.999100 5.803700
H 0.444800 -9.980300 4.306400
H 0.324100 -9.644300 1.835900
H -0.147600 -5.560100 2.281700
C -6.995000 2.378100 0.049600
C -6.581300 3.514500 0.064400
C -6.065700 4.824300 0.080400
C -6.905200 5.924400 0.086000
C -6.389200 7.225500 0.101200
C -5.036600 7.449400 0.110600
C -4.145700 6.354400 0.105200
C -2.747500 6.516300 0.112900
N -1.914200 5.496600 0.107700
C -2.391000 4.228400 0.095400
C -3.730800 3.962300 0.086500
C -4.656000 5.025000 0.090500
H -7.974200 5.774400 0.078600
H -7.075500 8.058400 0.105300
H -4.645300 8.454100 0.121900
H -2.311900 7.514100 0.123400
H -1.644800 3.438100 0.093200
H -4.098200 2.948900 0.076200
C -7.464800 1.049500 0.032600
C -8.858200 0.795900 0.014200
C -9.322100 -0.487200 -0.002500
C -8.432300 -1.583500 -0.001500
C -8.888400 -2.919700 -0.018100
C -8.009100 -3.962800 -0.016400
C -6.613700 -3.717400 0.001900
C -6.139300 -2.422200 0.018000
C -7.031900 -1.333700 0.016900
C -6.573100 -0.003200 0.033700
H -9.543700 1.630200 0.013500
H -10.385000 -0.682100 -0.016600
H -9.953200 -3.103300 -0.032100
H -8.364500 -4.982200 -0.029000
H -5.076800 -2.233600 0.032100
H -5.510600 0.185600 0.047800
C -5.724400 -4.809600 0.003500
C -4.963200 -5.749200 0.004900
C -4.116600 -6.872900 0.005000
C -4.646500 -8.171800 -0.002000
C -3.782700 -9.251200 -0.002800
C -2.415300 -9.022700 0.003000
N -1.912900 -7.785300 0.009900
C -2.725700 -6.730600 0.011300
H -5.715800 -8.314700 -0.006900
H -4.162100 -10.260200 -0.008100
H -1.702400 -9.843500 0.001900
H -2.259800 -5.746500 0.017600
C -0.356400 2.719800 -6.982700
C -0.376100 3.855200 -6.566400
C -0.419700 5.152100 -6.020400
C -0.640200 6.263800 -6.814300
C -0.710700 7.545400 -6.255500
C -0.572100 7.737200 -4.904700
C -0.341100 6.630100 -4.060700
C -0.202900 6.756800 -2.664500
N 0.020100 5.726800 -1.877700
C 0.138100 4.481000 -2.403400
C 0.006100 4.248100 -3.742100
C -0.250900 5.322900 -4.617100
H -0.763400 6.138500 -7.879400
H -0.883100 8.388700 -6.906500
H -0.636800 8.726300 -4.480100
H -0.281200 7.733600 -2.194800
H 0.346600 3.678900 -1.695200
H 0.096100 3.253500 -4.148200
C -0.338200 1.390500 -7.451100
C -0.373400 1.130900 -8.842700
C -0.359600 -0.154300 -9.301100
C -0.310700 -1.246200 -8.407300
C -0.294100 -2.584000 -8.858400
C -0.242800 -3.622700 -7.975700
C -0.207800 -3.371700 -6.581100
C -0.226700 -2.075000 -6.111500
C -0.276400 -0.990600 -7.008200
C -0.290900 0.341900 -6.555400
H -0.410500 1.961900 -9.531200
H -0.386000 -0.354100 -10.362900
H -0.321400 -2.772100 -9.922200
H -0.229000 -4.643200 -8.327500
H -0.200000 -1.881700 -5.050100
H -0.268100 0.536000 -5.493900
C -0.144200 -4.465100 -5.695300
C -0.081400 -5.413200 -4.947100
C 0.014700 -6.561800 -4.140100
C 0.177600 -7.826600 -4.724000
C 0.285200 -8.937400 -3.907300
C 0.229300 -8.771700 -2.532700
N 0.067200 -7.565400 -1.978400
C -0.039200 -6.483300 -2.744700
H 0.220100 -7.920000 -5.797900
H 0.413100 -9.920900 -4.329600
H 0.316000 -9.619000 -1.853500
H -0.171100 -5.530600 -2.238700
