
 OpenBabel01132018573D

 17 17  0  0  0  0  0  0  0  0999 V2000
   -0.9906   -1.7408    0.4677 C   0  0  0  0  0  0  0  0  0  0  0  0
   -1.6395   -0.6119   -0.0363 C   0  0  0  0  0  0  0  0  0  0  0  0
   -0.9213    0.5819   -0.1921 C   0  0  0  0  0  0  0  0  0  0  0  0
   -2.6882   -0.6667   -0.3018 H   0  0  0  0  0  0  0  0  0  0  0  0
    0.3968    0.6260    0.1489 N   0  0  0  0  0  0  0  0  0  0  0  0
   -1.5833    1.7864   -0.7217 C   0  0  0  0  0  0  0  0  0  0  0  0
    1.0495   -0.4621    0.6419 C   0  0  0  0  0  0  0  0  0  0  0  0
    0.3606   -1.6700    0.8098 C   0  0  0  0  0  0  0  0  0  0  0  0
    2.4970   -0.3605    1.0008 C   0  0  0  0  0  0  0  0  0  0  0  0
    0.8669   -2.5440    1.2010 H   0  0  0  0  0  0  0  0  0  0  0  0
   -1.5338   -2.6687    0.5929 H   0  0  0  0  0  0  0  0  0  0  0  0
   -0.9213    2.8777   -0.8627 N   0  0  0  0  0  0  0  0  0  0  0  0
   -2.6349    1.7504   -0.9935 H   0  0  0  0  0  0  0  0  0  0  0  0
   -1.7432    4.4263   -1.5357 Br  0  0  0  0  0  0  0  0  0  0  0  0
    2.8760    0.6649    0.8031 H   0  0  0  0  0  0  0  0  0  0  0  0
    3.0856   -1.0807    0.3947 H   0  0  0  0  0  0  0  0  0  0  0  0
    2.6334   -0.5888    2.0787 H   0  0  0  0  0  0  0  0  0  0  0  0
  1 11  1  0  0  0  0
  1  8  2  0  0  0  0
  2  1  1  0  0  0  0
  3  2  2  0  0  0  0
  3  5  1  0  0  0  0
  4  2  1  0  0  0  0
  5  7  2  0  0  0  0
  6  3  1  0  0  0  0
  7  8  1  0  0  0  0
  7  9  1  0  0  0  0
  8 10  1  0  0  0  0
  9 15  1  0  0  0  0
  9 16  1  0  0  0  0
  9 17  1  0  0  0  0
 12  6  2  0  0  0  0
 13  6  1  0  0  0  0
 14 12  1  0  0  0  0
M  END
