
 OpenBabel01132014503D

 14 14  0  0  0  0  0  0  0  0999 V2000
   -0.8775   -1.7360    0.4967 C   0  0  0  0  0  0  0  0  0  0  0  0
   -1.5338   -0.6119   -0.0079 C   0  0  0  0  0  0  0  0  0  0  0  0
   -0.8235    0.5864   -0.1671 C   0  0  0  0  0  0  0  0  0  0  0  0
   -2.5826   -0.6733   -0.2715 H   0  0  0  0  0  0  0  0  0  0  0  0
    0.4961    0.6393    0.1717 N   0  0  0  0  0  0  0  0  0  0  0  0
   -1.4989    1.7832   -0.6981 C   0  0  0  0  0  0  0  0  0  0  0  0
    1.1515   -0.4464    0.6647 C   0  0  0  0  0  0  0  0  0  0  0  0
    0.4737   -1.6554    0.8359 C   0  0  0  0  0  0  0  0  0  0  0  0
    2.1990   -0.3710    0.9239 H   0  0  0  0  0  0  0  0  0  0  0  0
    0.9913   -2.5214    1.2277 H   0  0  0  0  0  0  0  0  0  0  0  0
   -1.4147   -2.6669    0.6243 H   0  0  0  0  0  0  0  0  0  0  0  0
   -0.8518    2.8823   -0.8454 N   0  0  0  0  0  0  0  0  0  0  0  0
   -2.5510    1.7338   -0.9661 H   0  0  0  0  0  0  0  0  0  0  0  0
   -1.7011    4.4152   -1.5212 Br  0  0  0  0  0  0  0  0  0  0  0  0
  1 11  1  0  0  0  0
  1  8  2  0  0  0  0
  2  1  1  0  0  0  0
  3  2  2  0  0  0  0
  3  5  1  0  0  0  0
  4  2  1  0  0  0  0
  5  7  2  0  0  0  0
  6  3  1  0  0  0  0
  7  8  1  0  0  0  0
  7  9  1  0  0  0  0
  8 10  1  0  0  0  0
 12  6  2  0  0  0  0
 13  6  1  0  0  0  0
 14 12  1  0  0  0  0
M  END
