262
m2_lb
Pd    9.173500   -0.540400    1.012900
Pd   -9.140800   -1.333200    0.289500
 C   11.488200   -2.845000   -1.735300
 C   11.084600   -1.907700   -0.820600
 N    9.768700   -1.736700   -0.513100
 C    8.848700   -2.475800   -1.105100
 C    9.161500   -3.488800   -2.033600
 C    8.144300   -4.296600   -2.633500
 C    6.732100   -4.041500   -2.264800
 C    6.283500   -4.227300   -0.948000
 C    5.032900   -3.769900   -0.551400
 C    4.202900   -3.106000   -1.471400
 C    3.011800   -2.432900   -1.077700
 C    2.054900   -1.718700   -0.838500
 C    1.034600   -0.727600   -0.697000
 N    0.120400   -0.858900    0.270800
 C   -0.810300    0.096600    0.388200
 C   -1.790100   -0.010000    1.423700
 C   -2.693800    0.039500    2.237700
 C   -3.827200    0.225700    3.078600
 C   -4.164000    1.528500    3.489500
 C   -5.370500    1.770900    4.133900
 C   -6.271600    0.725600    4.376500
 C   -7.644700    1.022200    4.844200
 C   -7.900700    1.669100    6.036200
 C   -9.224100    1.951200    6.446600
 C  -10.303900    1.593500    5.671700
 C  -10.091400    0.947900    4.430500
 C  -11.145900    0.562100    3.564800
 C  -10.869500   -0.049400    2.370100
 N   -9.588500   -0.284600    1.973300
 C   -8.579200    0.076900    2.745600
 C   -8.755700    0.673500    4.010400
 C   -5.885300   -0.586700    4.060300
 C   -4.678900   -0.838500    3.421100
 C   -0.869200    1.214200   -0.460200
 C    0.089500    1.348000   -1.456200
 C    1.059800    0.364000   -1.582500
 C    4.614500   -3.005200   -2.813400
 C    5.862900   -3.470500   -3.202500
 C    8.522000   -5.234300   -3.571800
 C    9.882500   -5.417100   -3.914000
 C   10.874800   -4.663500   -3.329400
 C   10.533600   -3.675900   -2.374800
 H   12.549600   -2.951900   -1.964600
 H   11.795000   -1.262900   -0.301500
 H    7.811200   -2.278500   -0.832600
 H    6.941200   -4.701900   -0.215200
 H    4.712800   -3.884000    0.485600
 H   -3.490400    2.353000    3.246900
 H   -5.649000    2.793800    4.398600
 H   -7.066900    1.950400    6.682900
 H   -9.385300    2.453900    7.402600
 H  -11.324100    1.804300    5.998200
 H  -12.183100    0.747500    3.848100
 H  -11.658600   -0.368700    1.688000
 H   -7.575700   -0.111200    2.362000
 H   -6.555500   -1.419000    4.289200
 H   -4.411500   -1.858700    3.142600
 H   -1.648800    1.962900   -0.320500
 H    0.073800    2.232400   -2.100100
 H    1.826900    0.411500   -2.354200
 H    3.964800   -2.506200   -3.533800
 H    6.195600   -3.336100   -4.234400
 H    7.759700   -5.854600   -4.047900
 H   10.143800   -6.177200   -4.653500
 H   11.923400   -4.813500   -3.594200
 C    8.906700   -4.423700    2.772500
 C    9.358100   -3.267500    2.196000
 N    8.532400   -2.201600    2.000100
 C    7.275100   -2.253000    2.406000
 C    6.723800   -3.378400    3.054200
 C    5.363600   -3.414600    3.501700
 C    4.485700   -2.225900    3.419200
 C    4.862200   -0.995500    3.984400
 C    4.037200    0.116700    3.880300
 C    2.807900    0.029600    3.198600
 C    2.011900    1.190800    2.982000
 C    1.374200    2.193300    2.712800
 C    0.729200    3.401500    2.295900
 N   -0.539300    3.322200    1.879100
 C   -1.117300    4.422800    1.386300
 C   -2.470300    4.299400    0.926700
 C   -3.615900    4.207600    0.522900
 C   -4.947300    4.101500    0.023100
 C   -5.266100    4.602800   -1.250700
 C   -6.547500    4.459700   -1.762500
 C   -7.560700    3.831500   -1.020400
 C   -8.912500    3.692900   -1.606500
 C   -9.489000    4.769500   -2.258400
 C  -10.775300    4.692900   -2.832900
 C  -11.513900    3.535500   -2.758800
 C  -10.970900    2.402000   -2.110200
 C  -11.681500    1.180900   -2.002000
 C  -11.118400    0.111500   -1.360300
 N   -9.864200    0.184400   -0.837200
 C   -9.156400    1.295400   -0.943900
 C   -9.660300    2.470400   -1.542400
 C   -7.250800    3.381200    0.273800
 C   -5.964300    3.498300    0.783300
 C   -0.452800    5.657900    1.295100
 C    0.852700    5.740800    1.765500
 C    1.459500    4.602900    2.282100
 C    2.409400   -1.211000    2.670000
 C    3.238900   -2.318400    2.784500
 C    4.879200   -4.605100    4.012000
 C    5.702200   -5.745600    4.138200
 C    7.024800   -5.710600    3.761300
 C    7.561100   -4.525700    3.205800
 H    9.586000   -5.269100    2.891700
 H   10.388100   -3.155200    1.855600
 H    6.653100   -1.380600    2.200200
 H    5.807900   -0.910700    4.525400
 H    4.344800    1.067600    4.320200
 H   -4.491600    5.085700   -1.846000
 H   -6.763800    4.824000   -2.769300
 H   -8.944700    5.714700   -2.307000
 H  -11.187900    5.574000   -3.328900
 H  -12.514800    3.476100   -3.190400
 H  -12.683300    1.092000   -2.424900
 H  -11.640100   -0.839500   -1.246400
 H   -8.145400    1.273000   -0.535700
 H   -8.029200    2.949600    0.906300
 H   -5.742000    3.123600    1.782800
 H   -0.960800    6.522300    0.865700
 H    1.399800    6.684500    1.717000
 H    2.487600    4.619900    2.644900
 H    1.462900   -1.287900    2.129400
 H    2.927100   -3.267400    2.342500
 H    3.843400   -4.654200    4.354200
 H    5.279400   -6.660200    4.559300
 H    7.667400   -6.585400    3.877400
 C    8.698200    1.045200    4.915000
 C    9.094200    0.344900    3.809400
 N    8.565600    0.599700    2.579500
 C    7.642000    1.533800    2.430900
 C    7.145400    2.294900    3.510100
 C    6.142100    3.301900    3.345600
 C    5.447400    3.574800    2.065700
 C    5.328800    4.901300    1.619500
 C    4.499200    5.224200    0.556300
 C    3.745400    4.223300   -0.083500
 C    2.716200    4.591400   -0.994300
 C    1.741400    4.947100   -1.632600
 C    0.509500    5.352300   -2.236200
 N   -0.366200    4.380400   -2.507700
 C   -1.574600    4.705500   -2.979100
 C   -2.470100    3.611600   -3.196700
 C   -3.189400    2.637500   -3.323900
 C   -3.947900    1.443000   -3.477900
 C   -3.271900    0.211100   -3.545300
 C   -3.982900   -0.964100   -3.728600
 C   -5.381500   -0.960100   -3.828200
 C   -6.078400   -2.244700   -4.061900
 C   -5.644400   -3.075700   -5.080100
 C   -6.266300   -4.314600   -5.345000
 C   -7.334300   -4.743600   -4.592000
 C   -7.801700   -3.942600   -3.524400
 C   -8.875400   -4.340900   -2.690300
 C   -9.256100   -3.553800   -1.638100
 N   -8.615000   -2.385300   -1.358800
 C   -7.621300   -1.968700   -2.124100
 C   -7.168500   -2.691500   -3.248600
 C   -6.056000    0.268700   -3.747300
 C   -5.350900    1.455000   -3.579800
 C   -1.953900    6.035400   -3.226800
 C   -1.031300    7.043000   -2.963500
 C    0.220600    6.710100   -2.458100
 C    3.927200    2.883700    0.301800
 C    4.772800    2.567300    1.358000
 C    5.775800    4.039400    4.458900
 C    6.339100    3.802400    5.730700
 C    7.283000    2.819100    5.910200
 C    7.709300    2.052600    4.801300
 H    9.150000    0.828000    5.883900
 H    9.848200   -0.440700    3.862700
 H    7.268900    1.709600    1.420800
 H    5.875900    5.692700    2.136000
 H    4.386000    6.264300    0.245500
 H   -2.184200    0.184700   -3.453400
 H   -3.442500   -1.909200   -3.779000
 H   -4.812000   -2.753900   -5.709600
 H   -5.894900   -4.930100   -6.167000
 H   -7.824100   -5.696700   -4.799300
 H   -9.395000   -5.281700   -2.878100
 H  -10.072900   -3.830800   -0.971000
 H   -7.134300   -1.034900   -1.838000
 H   -7.143000    0.306800   -3.851600
 H   -5.886100    2.404100   -3.533100
 H   -2.946400    6.261600   -3.619300
 H   -1.290800    8.087800   -3.146200
 H    0.963300    7.474000   -2.225700
 H    3.352800    2.097200   -0.191200
 H    4.841800    1.528000    1.685800
 H    5.004600    4.805500    4.356200
 H    6.005000    4.402800    6.579400
 H    7.713700    2.621400    6.893500
 C   11.035200    3.085300   -0.207600
 C   10.782900    1.861600    0.351900
 N    9.682300    1.139100    0.004900
 C    8.848100    1.592400   -0.914600
 C    9.024500    2.832900   -1.561600
 C    8.090100    3.329700   -2.525300
 C    6.944800    2.515000   -2.990300
 C    7.137700    1.236600   -3.537900
 C    6.061900    0.492700   -4.004300
 C    4.755900    1.008700   -3.929600
 C    3.645800    0.243200   -4.395300
 C    2.689900   -0.415500   -4.762700
 C    1.543900   -1.205600   -5.113500
 N    0.809700   -1.656000   -4.092100
 C   -0.276200   -2.389300   -4.357100
 C   -1.054000   -2.825700   -3.237900
 C   -1.763600   -3.150600   -2.302600
 C   -2.618700   -3.487100   -1.215500
 C   -3.906600   -4.007000   -1.446400
 C   -4.739900   -4.317400   -0.379800
 C   -4.312300   -4.127000    0.945300
 C   -5.152900   -4.523800    2.096300
 C   -4.615300   -5.332500    3.082400
 C   -5.386200   -5.788500    4.172800
 C   -6.713700   -5.448800    4.288800
 C   -7.303300   -4.600200    3.323600
 C   -8.657200   -4.190900    3.399000
 C   -9.162600   -3.318800    2.475000
 N   -8.385600   -2.804000    1.480500
 C   -7.125300   -3.185000    1.358800
 C   -6.518600   -4.113900    2.232800
 C   -3.026900   -3.610000    1.167400
 C   -2.190700   -3.286900    0.108800
 C   -0.673600   -2.708900   -5.668000
 C    0.098600   -2.240300   -6.724500
 C    1.228700   -1.474900   -6.455200
 C    4.559000    2.287400   -3.379100
 C    5.641800    3.028200   -2.922800
 C    8.280600    4.607900   -3.016400
 C    9.385800    5.394100   -2.622500
 C   10.314800    4.914700   -1.728400
 C   10.146100    3.626000   -1.169900
 H   11.913400    3.651900    0.105600
 H   11.433000    1.422900    1.110100
 H    7.978600    0.971700   -1.139600
 H    8.147100    0.827400   -3.624100
 H    6.227600   -0.495900   -4.435400
 H   -4.247800   -4.175800   -2.469800
 H   -5.724100   -4.747500   -0.581400
 H   -3.575900   -5.655200    2.995100
 H   -4.920100   -6.435600    4.918700
 H   -7.320400   -5.817200    5.118000
 H   -9.298200   -4.561600    4.200300
 H  -10.199300   -2.983700    2.509600
 H   -6.544000   -2.725900    0.557500
 H   -2.680200   -3.443100    2.189700
 H   -1.206400   -2.852600    0.298100
 H   -1.568800   -3.308700   -5.838900
 H   -0.180200   -2.468800   -7.755200
 H    1.858500   -1.086200   -7.256300
 H    3.549300    2.697100   -3.306100
 H    5.473700    4.016000   -2.488600
 H    7.575500    5.007400   -3.748400
 H    9.504400    6.392400   -3.049000
 H   11.176000    5.517400   -1.433700
