86
Coordinates from ORCA-job _binolB
  H   -7.65815799254540     -1.97730696568328     -0.15014704006895
  C   -6.63651224104769     -2.37620071531895     -0.00959350409527
  N   -6.35114519991866     -3.61694198702821     -0.02834295927542
  C   -7.34762509313865     -4.58269769794551     -0.15858655994636
  C   -8.62611865449001     -4.45461309568976      0.40936640663868
  C   -9.56624704557512     -5.46907819968240      0.25574521934772
  C   -9.25257806859520     -6.62018337866998     -0.46657085390292
  C   -7.98036546458724     -6.75838812248398     -1.02345354766195
  C   -7.03040510943148     -5.75696897687791     -0.85807853184772
  H   -6.02514124706359     -5.85325719275980     -1.27289876450839
  H   -7.72288534944518     -7.66130715396227     -1.58248336406312
  H   -9.99377196799320     -7.41410550477372     -0.58366928431520
  H   -10.55307502133921     -5.36297399481345      0.71303614912835
  H   -8.86896166324393     -3.56836188654319      1.00003448700628
  C   -5.60822747503939     -1.34722481802151      0.19102641074990
  N   -6.03927620941084     -0.08225028152380      0.20110158092648
  C   -5.14984641733958      0.88109403593946      0.38717993742404
  C   -3.77628254158171      0.66079183402675      0.58115584426680
  C   -3.33624538951843     -0.67238202063874      0.55700588722454
  C   -4.25926249481909     -1.68589628894036      0.36253044178848
  H   -3.97566969135107     -2.73953799809852      0.34403676343721
  H   -2.27830636466316     -0.89873604026009      0.69443926184928
  C   -2.86366774716661      1.79439828185531      0.82189376642915
  C   -3.22675761378031      2.82484774903200      1.66624779536130
  C   -2.36650715534293      3.91650587191301      1.92741751879910
  C   -2.74100517079588      4.96222258494080      2.80987180032025
  C   -1.88256195980670      6.00313693267225      3.07231717013959
  C   -0.60605606378406      6.03568221849619      2.46695019474392
  C   -0.21428930880201      5.03644604452980      1.60594602239904
  C   -1.08279451167303      3.95607612455722      1.30569090645943
  C   -0.71090944546816      2.90442141017737      0.41616663105091
  C   -1.58410143132998      1.85471263996616      0.19091603458842
  O   -1.20958674760735      0.83892485835946     -0.63159841642845
  C   -1.56880048106083      1.00090111863130     -1.98722932290985
  H   -1.19522678696169      0.12104885333090     -2.52663140147942
  H   -1.10898461932445      1.90814040379327     -2.41370705602525
  H   -2.66501462785127      1.05820349317650     -2.10676905239455
  C   0.59308659757911      2.89068175151666     -0.29165840081068
  C   1.54123072717837      1.92333242913527      0.00978299505640
  C   2.72552506375282      1.77685786315480     -0.78217762974116
  C   2.94044691077846      2.66213162202811     -1.81744257961161
  C   2.02427371592664      3.69080752297760     -2.13157344629647
  C   2.25613751900131      4.58729121406788     -3.20511384666301
  C   1.33140731371512      5.55023079149090     -3.53233112241323
  C   0.12767653465872      5.64250532130304     -2.79940564711705
  C   -0.12434759375786      4.78770766126108     -1.75024511280633
  C   0.82109145202672      3.79790362540752     -1.37310804555164
  H   -1.06121065229063      4.86782829116873     -1.19674518946702
  H   -0.61289733565626      6.39938791045776     -3.06863055323274
  H   1.52043898742674      6.23708977525033     -4.36041308793679
  H   3.18597380524308      4.49392772752946     -3.77224044614331
  H   3.83346591839388      2.55288595616369     -2.43740639513461
  C   3.70496754558447      0.70645172572107     -0.51597677797919
  C   5.08204427539765      0.96752949277389     -0.61496789252159
  N   6.02675742729133      0.05019545882830     -0.48079838285244
  C   5.65507736506350     -1.20705463920284     -0.22011353645138
  C   4.31301180470069     -1.57883736315697     -0.06644091225806
  C   3.33130543292320     -0.61330456092199     -0.21624361283875
  H   2.27591954886548     -0.86958835291146     -0.11785209708067
  H   4.07749300062249     -2.62182056892894      0.15193366655716
  C   6.74395964436256     -2.18547772917295     -0.11528733079634
  N   6.53051338907246     -3.41704697311713      0.12926592585283
  C   7.59269457010733     -4.31119399669425      0.25717085183426
  C   8.82603818442086     -3.96830557130719      0.83615465077929
  C   9.84173630816071     -4.91439834489132      0.93454989789083
  C   9.64906743139429     -6.21111947582311      0.45830632556763
  C   8.42038988868815     -6.56274355557967     -0.10241900135885
  C   7.39562102056649     -5.62712777353176     -0.18825889978275
  H   6.42376368514928     -5.88647389663182     -0.61271345423233
  H   8.25688586574690     -7.57957051149968     -0.46759551458568
  H   10.44924636963342     -6.95052586152010      0.53875401368329
  H   10.79280406107788     -4.63752649777181      1.39628796569969
  H   8.97387316147128     -2.96257466118486      1.23607396481430
  H   7.74992699190281     -1.76040622805282     -0.28902163835497
  H   5.42174484720626      1.99274580280308     -0.80437967727686
  O   1.40977298047612      1.04699597907869      1.02723906675482
  C   1.01411320585729      1.47958270012278      2.30956281740620
  H   1.28205683261563      2.53474771016144      2.47581721022337
  H   1.55267442118681      0.85363358689044      3.03543268128937
  H   -0.06870442723353      1.36171544315004      2.46790421925275
  H   0.77186846563118      5.06647336133378      1.13829419221401
  H   0.07502693569498      6.86156997647439      2.68495150832353
  H   -2.18207768749191      6.80388963890949      3.75236965173909
  H   -3.72683392264765      4.92319407716987      3.28027780712483
  H   -4.19251383581962      2.78720118518806      2.17629657267684
  H   -5.53116429966189      1.90918753260023      0.36704155299898
