86

H 14.365100 15.892500 9.792600
H 5.688500 7.021400 15.305700
H 12.569900 11.912800 12.976100
H 10.469400 5.454700 13.365500
H 11.047000 17.923900 5.598700
H 1.427600 8.028000 11.596000
H 12.922800 16.283600 5.556500
H 2.138500 5.694200 11.098100
H 9.781000 18.300100 7.709600
H 2.929900 9.524100 12.903400
H 17.002500 11.166000 19.859000
H 17.092600 3.840800 14.540400
H 16.074500 8.855600 19.798400
H 18.073800 6.112600 14.837000
H 16.088900 15.038100 11.553800
H 7.664800 7.204600 17.006400
H 10.361500 17.046600 9.750900
H 5.115900 8.681200 13.723300
H 16.598900 13.394700 13.371300
H 10.154900 7.267700 17.262400
H 16.757000 12.654900 17.893900
H 14.632800 3.534100 14.623200
H 14.911700 8.019100 17.790700
H 16.627700 8.064900 15.226600
H 13.529200 15.037000 7.614700
H 4.310500 4.856700 11.897500
H 15.892700 13.050100 15.638000
H 12.381500 4.485600 14.889200
H 15.241000 10.029800 11.976400
H 14.932200 8.385100 12.615000
H 13.803200 9.112900 11.422900
H 12.365200 10.665000 16.433500
H 12.356700 9.309000 17.593600
H 10.810900 10.058400 17.087400
N 13.100400 13.473600 11.727800
N 8.558000 5.855500 14.046200
N 12.385700 15.267100 9.993000
N 6.076100 6.226700 13.414600
O 13.636000 9.864300 13.305900
O 11.641700 8.851300 15.684400
C 13.634900 15.251200 10.301600
C 6.401000 6.547100 14.619900
C 13.367200 12.597300 12.687900
C 9.878400 5.850300 14.193900
C 11.313600 17.371500 6.502300
C 2.391300 7.660700 11.954900
C 12.365900 16.457600 6.480000
C 2.791400 6.354700 11.672700
C 10.601400 17.579600 7.684100
C 3.230200 8.495200 12.692400
C 16.488900 10.813900 18.962200
C 16.434500 4.697100 14.701000
C 15.961100 9.503600 18.926500
C 16.989400 5.985400 14.870200
C 15.332200 14.332000 11.900500
C 8.321000 6.837300 16.214700
C 10.932400 16.878000 8.838700
C 4.450000 8.019900 13.163200
C 15.607700 13.424500 12.913400
C 9.701900 6.873000 16.351800
C 16.352900 11.639900 17.872400
C 15.071600 4.527300 14.747600
C 15.310200 9.035400 17.806600
C 16.181600 7.078500 15.089400
C 12.715400 15.766200 7.636400
C 4.016900 5.878500 12.126000
C 15.509000 12.027700 15.584300
C 12.808800 5.483300 15.023800
C 14.058500 14.339700 11.336000
C 7.778500 6.366000 15.017200
C 12.006100 15.981100 8.826700
C 4.845600 6.698800 12.900300
C 14.310800 10.274700 14.421600
C 12.541100 7.852200 15.492600
C 14.613100 12.532100 13.337600
C 10.516800 6.406600 15.309000
C 15.685100 11.187500 16.705000
C 14.212500 5.633300 14.975100
C 14.827000 11.605400 14.457200
C 11.980600 6.552700 15.294500
C 15.155400 9.861000 16.666600
C 14.772700 6.934800 15.162400
C 14.471500 9.418300 15.492100
C 13.907500 8.048700 15.402800
C 14.452300 9.321000 12.284600
C 11.816200 9.765700 16.750100
