86

H 11.383300 8.585400 5.260400
H 9.257900 13.642100 18.227600
H 15.054800 8.567400 9.235600
H 12.009100 12.079500 13.841100
H 8.394500 3.718100 4.228400
H 3.567300 14.131200 18.151000
H 8.064800 4.362400 6.608600
H 5.042500 15.991200 17.394100
H 19.412900 15.676300 9.371000
H 19.804000 10.099100 16.148700
H 19.104000 15.554700 11.841000
H 20.165100 10.194300 13.684400
H 10.290800 4.685200 2.933800
H 4.420900 11.793700 18.134300
H 12.589500 10.856700 5.650700
H 11.847500 13.675400 18.481000
H 11.883000 6.246400 4.032400
H 6.725600 11.313400 17.334500
H 14.156200 12.192900 7.076900
H 14.072600 13.301100 17.419200
H 9.650500 5.925300 7.707000
H 7.333400 15.508700 16.566700
H 18.161600 14.132900 7.888500
H 17.628700 10.804600 17.110100
H 16.510700 12.349200 7.610100
H 15.369700 11.637500 16.794900
H 17.600600 13.883600 12.840500
H 18.396900 11.025300 12.184800
H 14.263700 8.558000 12.188700
H 15.612200 9.554900 12.782300
H 15.816300 8.596700 11.291600
H 12.986100 14.445500 11.749900
H 14.772400 14.406900 11.820400
H 13.828100 14.832600 13.286600
N 13.647400 8.422100 7.736800
N 10.821800 12.608500 15.447800
N 11.797600 7.026900 6.578800
N 8.463800 13.099500 16.382600
O 14.551100 10.245000 11.112300
O 13.741000 12.825500 12.713500
C 11.968000 8.206900 6.108500
C 9.429100 13.288700 17.202800
C 14.505600 9.120300 8.474400
C 12.003500 12.413100 14.875300
C 9.091400 4.408200 4.709000
C 4.573100 13.919200 17.782600
C 8.912300 4.762300 6.047700
C 5.398400 14.959000 17.358400
C 18.732700 14.934900 9.795200
C 19.002400 10.455100 15.498200
C 18.559100 14.861600 11.195900
C 19.206400 10.511700 14.101200
C 10.151500 4.949700 3.984300
C 5.048700 12.607300 17.764500
C 13.145700 10.389300 6.465700
C 11.923300 13.298800 17.459100
C 11.040400 5.835300 4.591700
C 6.334800 12.331800 17.304600
C 14.022700 11.123400 7.253400
C 13.158600 13.084000 16.863200
C 9.803600 5.629500 6.669200
C 6.686900 14.695300 16.895300
C 18.040600 14.079100 8.973400
C 17.800100 10.850500 16.032000
C 16.397200 12.259600 8.693900
C 15.524900 11.748200 15.719400
C 17.717200 13.927100 11.756300
C 18.219400 10.977300 13.260600
C 12.949200 9.042900 6.762800
C 10.769400 13.047200 16.721600
C 10.873000 6.160800 5.941600
C 7.145400 13.377900 16.856800
C 15.431000 11.176800 10.634700
C 14.736500 12.337600 13.510100
C 14.702200 10.504400 8.312600
C 13.226700 12.610200 15.544000
C 17.155700 13.113400 9.520400
C 16.766900 11.340400 15.192200
C 15.546700 11.301900 9.216100
C 14.508700 12.245200 14.920600
C 17.002300 13.016500 10.937800
C 16.979500 11.420900 13.783000
C 16.124600 12.025500 11.480200
C 15.934700 11.934200 12.950600
C 15.099100 9.195900 11.880000
C 13.848900 14.199900 12.383100
