80

H 13.166800 9.647800 12.889000
H 11.468600 9.454000 15.771200
H 15.730300 15.952100 10.137700
H 5.589300 5.148500 15.935200
H 12.267100 13.065400 13.082800
H 9.984600 5.130700 12.805600
H 14.188200 17.464200 4.833400
H 0.453100 4.527500 13.455000
H 15.482900 15.501500 5.655200
H 1.705300 6.539400 14.226800
H 12.625200 18.646400 6.370200
H 1.689600 2.433700 12.921200
H 15.115000 10.363500 20.307400
H 16.898000 4.991900 12.653600
H 14.389100 8.113100 19.523300
H 17.580200 7.255300 13.440700
H 16.704800 15.070600 12.395400
H 7.734800 6.001800 17.090400
H 12.344000 17.874900 8.696900
H 4.143700 2.344400 13.140300
H 16.390900 13.440000 14.278600
H 10.076900 6.822000 16.771500
H 15.175400 12.269500 18.725600
H 14.524300 4.293700 12.788100
H 13.708700 7.756800 17.175000
H 15.910000 8.824000 14.359200
H 15.214700 14.730400 8.001400
H 4.174100 6.451200 14.460100
H 14.889400 13.137600 16.436000
H 12.232000 4.742100 13.540000
N 13.434100 14.347900 11.961000
N 8.265400 4.914900 13.939200
N 13.668000 15.814500 9.847000
N 5.728000 4.363400 14.006200
O 13.298800 10.594500 13.057100
O 11.035200 8.637500 15.474500
C 14.752800 15.623600 10.511900
C 6.220300 4.872700 15.081400
C 13.267400 13.480800 12.951500
C 9.517900 5.331100 13.772800
C 14.070600 17.122500 5.863900
C 1.539600 4.491200 13.559900
C 14.799200 16.027400 6.325200
C 2.239800 5.615100 13.996200
C 13.191100 17.781700 6.723400
C 2.233200 3.319300 13.257100
C 14.810700 10.225700 19.267800
C 16.143500 5.678400 13.042900
C 14.395400 8.950600 18.822000
C 16.528900 6.962600 13.488600
C 15.735600 14.604300 12.582500
C 8.268300 5.830600 16.153500
C 13.033100 17.350900 8.036800
C 3.617500 3.265200 13.384100
C 15.555800 13.705900 13.626600
C 9.565900 6.283700 15.973600
C 14.842600 11.283700 18.390700
C 14.827800 5.290500 13.117800
C 14.011400 8.749400 17.514700
C 15.601100 7.840300 14.000600
C 14.660100 15.601000 7.642600
C 3.622400 5.563600 14.141300
C 14.519600 12.164800 16.101200
C 12.509600 5.754600 13.843600
C 14.658700 14.871500 11.741500
C 7.631300 5.177300 15.099100
C 13.782300 16.267800 8.509200
C 4.320800 4.382400 13.848400
C 13.657000 10.732100 14.356000
C 11.964500 7.862200 14.889300
C 14.313700 13.082300 13.796500
C 10.214200 6.060600 14.748200
C 14.455300 11.108700 17.037400
C 13.849400 6.162800 13.660300
C 14.129200 12.007500 14.785800
C 11.572700 6.553500 14.473000
C 14.022800 9.822100 16.590900
C 14.241200 7.461000 14.111400
C 13.629700 9.655400 15.226600
C 13.261200 8.313500 14.703900
