56

H 10.801900 17.258000 13.697200
H 4.546800 3.605300 9.947200
H 10.273200 12.702600 10.863900
H 7.771600 6.952600 12.680000
H 15.963600 19.813100 13.711900
H 6.054200 -1.943000 9.677000
H 14.873600 18.275700 15.342600
H 5.645100 -1.468300 12.086500
H 15.205800 19.837900 11.340300
H 6.411600 -0.057200 8.087900
H 8.507600 16.018800 14.023700
H 3.939400 6.143600 9.717800
H 13.409400 18.323600 10.589700
H 6.371200 2.284400 8.910400
H 7.220300 13.905000 13.661300
H 4.691600 8.499700 10.086100
H 6.000300 12.509900 12.053500
H 5.002800 10.294700 11.696300
H 13.049700 16.766600 14.598600
H 5.629000 0.855000 12.914400
H 9.941400 10.743300 11.977200
H 8.949300 8.543600 11.548200
N 10.554100 14.521000 11.796300
N 6.541700 5.556700 11.787800
N 12.048600 16.588800 12.160700
N 5.956800 3.074400 11.393400
C 10.991500 16.535100 12.894500
C 5.257900 3.920700 10.720300
C 9.868000 13.403900 11.594200
C 6.935800 6.807000 11.994100
C 15.158000 19.150600 13.387600
C 6.033500 -0.911600 10.035800
C 14.545800 18.293100 14.301000
C 5.810900 -0.645800 11.387400
C 14.737900 19.159900 12.057200
C 6.229600 0.143700 9.145900
C 8.870400 15.252600 13.336100
C 4.791700 6.365700 10.362500
C 13.719800 18.311700 11.633300
C 6.191500 1.457300 9.601600
C 8.155300 14.080400 13.124800
C 5.208800 7.672800 10.577300
C 6.653700 11.639400 11.960800
C 6.090200 10.388500 11.740600
C 13.512600 17.457500 13.890000
C 5.792900 0.664400 11.854800
C 8.855200 10.655700 11.895800
C 8.293100 9.407300 11.680700
C 10.084200 15.431900 12.672500
C 5.498100 5.324800 10.964800
C 13.087500 17.467400 12.553600
C 5.965000 1.726200 10.959100
C 8.671900 13.106000 12.260000
C 6.328300 7.913800 11.385300
C 8.044600 11.792300 12.039100
C 6.900600 9.253000 11.602700
