80

H 11.226800 7.161900 10.310800
H 11.290900 9.054100 7.796700
H 4.086300 4.139800 10.882400
H 16.014500 15.486100 9.661700
H 9.453400 4.659600 10.672300
H 12.316200 11.564500 9.381000
H 1.436100 4.876100 15.934700
H 14.597600 20.608000 11.918300
H 1.759500 6.381600 13.973700
H 13.263000 18.915000 13.165000
H 12.071700 5.631100 2.805500
H 16.975700 4.463100 10.089100
H 13.851100 6.975600 3.917000
H 14.820000 3.385700 9.452300
H 2.973500 2.946800 16.275300
H 15.706900 19.972600 9.779700
H 5.040900 4.485200 8.523100
H 16.902200 13.225300 8.788000
H 4.827700 2.536000 14.703500
H 15.414800 17.694100 8.855000
H 6.992900 5.261600 7.181400
H 16.473600 10.780800 8.580600
H 3.622800 5.975900 12.390300
H 12.983100 16.628800 12.248000
H 10.105200 4.863700 4.109900
H 17.130500 6.938000 10.206500
H 8.937000 4.692300 6.241800
H 16.089800 9.123700 9.949600
H 13.686800 7.551700 6.309700
H 12.868000 4.758400 8.821700
N 7.431300 4.312000 10.897600
N 13.579000 13.206900 9.365300
N 5.398000 4.017100 12.501500
N 13.963400 15.716200 9.960100
O 10.447000 6.650200 10.035700
O 11.952500 9.644500 8.192500
C 5.119600 4.105600 11.247500
C 15.007200 15.056700 9.605000
C 8.487600 4.660700 10.170700
C 13.347700 11.898100 9.274800
C 2.252900 4.695800 15.231700
C 14.471100 19.601800 11.512000
C 2.433200 5.536400 14.133700
C 13.711500 18.656100 12.203100
C 11.977900 5.884800 3.863500
C 16.106900 5.083500 9.857100
C 12.985200 6.647300 4.496700
C 14.886600 4.475800 9.489700
C 3.117400 3.617300 15.424800
C 15.089100 19.246900 10.313900
C 6.035400 4.549800 8.968100
C 15.901500 12.817800 8.942400
C 4.161800 3.381000 14.535600
C 14.932300 17.964400 9.794600
C 7.127800 4.970900 8.225000
C 15.657700 11.457600 8.840900
C 3.468400 5.299000 13.234300
C 13.535800 17.377500 11.682200
C 10.889500 5.458000 4.585600
C 16.196800 6.454100 9.914500
C 9.684000 5.318100 6.735700
C 15.167100 8.673500 9.578500
C 12.894400 6.973500 5.832300
C 13.792500 5.239400 9.144100
C 6.212800 4.274900 10.322800
C 14.841700 13.666500 9.254100
C 4.337600 4.212900 13.423200
C 14.133000 17.030900 10.464900
C 10.569600 6.377200 8.717100
C 12.935000 8.864600 8.693000
C 8.392100 5.071000 8.828100
C 14.367700 10.948700 9.074300
C 10.769600 5.777000 5.963200
C 15.084100 7.265400 9.578200
C 9.555000 5.586300 8.088500
C 14.141100 9.493600 9.136900
C 11.784800 6.550200 6.601900
C 13.869800 6.652100 9.156400
C 11.658200 6.842100 7.997100
C 12.801400 7.484700 8.700200
