56

H 11.622200 14.496600 5.855900
H 6.629300 4.846100 16.334200
H 10.250500 12.878300 10.810700
H 7.672700 6.698100 11.398600
H 16.387100 17.258900 4.735600
H 8.784500 -0.265600 17.769300
H 16.082100 14.787200 4.737300
H 7.211900 -0.707400 15.890100
H 14.891700 18.690800 6.120200
H 9.624200 2.048400 18.161400
H 9.407100 13.135000 5.986600
H 5.903100 7.358100 15.930100
H 13.111000 17.666700 7.510300
H 8.886700 3.902700 16.687200
H 7.863100 11.769100 7.397900
H 6.074100 9.336800 14.415100
H 8.495500 12.448500 11.916000
H 7.660200 10.723600 13.431100
H 14.278800 13.759300 6.111400
H 6.486100 1.130100 14.412200
H 7.808200 9.825300 8.550400
H 6.907300 8.133300 10.055900
N 10.817300 13.690000 9.003800
N 7.129000 5.829700 13.183300
N 12.543900 15.043100 7.641300
N 7.196800 3.730300 14.662600
C 11.635800 14.455000 6.952100
C 6.806700 4.807100 15.252700
C 10.016900 12.940500 9.749300
C 7.251000 6.880300 12.387100
C 15.607400 16.803600 5.350500
C 8.459500 0.553100 17.123300
C 15.435000 15.420200 5.348700
C 7.581100 0.305200 16.067700
C 14.771700 17.604900 6.129300
C 8.924600 1.848500 17.346600
C 9.556500 13.055300 7.065500
C 6.289000 7.253100 14.914300
C 13.771600 17.037400 6.915000
C 8.501000 2.892400 16.530500
C 8.708200 12.289400 7.852900
C 6.395900 8.351600 14.070500
C 8.163300 11.496200 11.498300
C 7.670600 10.526400 12.357100
C 14.424900 14.842500 6.113800
C 7.167300 1.340300 15.235200
C 7.760000 10.041900 9.619300
C 7.267300 9.073300 10.477200
C 10.623000 13.718900 7.670700
C 6.694600 6.001900 14.447300
C 13.596500 15.652700 6.899700
C 7.609200 2.646500 15.475800
C 8.958100 12.185600 9.227700
C 6.925800 8.183200 12.782800
C 8.252100 11.255300 10.118900
C 7.250600 9.283400 11.864400
