56
Coordinates from ORCA-job _longD
  H   -7.44655005493725     -0.84189029994142     -1.28392747168708
  C   -7.09198381386049     -0.22986377056535     -0.43423638721281
  N   -7.86710545600902      0.40284269871987      0.35313317833796
  C   -9.25120890797271      0.29553756776972      0.23047483485943
  C   -9.90129719566707     -0.90889052654392     -0.08514982118309
  C   -11.28923433375153     -0.95252811916527     -0.17635749737194
  C   -12.04754812117795      0.19807687669537      0.03710513157224
  C   -11.40757347317414      1.39462593668482      0.36339809657177
  C   -10.02294135315062      1.44078350905933      0.47729826676103
  H   -9.50599842730999      2.36370177116987      0.74722805576377
  H   -11.99546997245235      2.29803091225666      0.54307720687603
  H   -13.13679576854070      0.15930819379744     -0.03611730947965
  H   -11.78445536548825     -1.89813564240373     -0.41054206091503
  H   -9.31182949031693     -1.81757667832061     -0.22780700543512
  C   -5.63181379647281     -0.18159763267847     -0.28721708902331
  N   -4.92562077939279     -0.85753070237385     -1.19866932447707
  C   -3.60478537207299     -0.83944115070586     -1.11124870094606
  C   -2.88951924507544     -0.15033932594956     -0.11685886458560
  C   -3.64667627695289      0.54742336744693      0.83624876516453
  C   -5.02870972784388      0.53418578053961      0.75543586790775
  H   -5.66378740428547      1.06733837741824      1.46468731658480
  H   -3.14527182617898      1.11650137258359      1.62303690978773
  C   -1.41685539785406     -0.16941775146174     -0.07798529934003
  C   -0.65960669096774     -0.14087895006481     -1.25843525925319
  C   0.72823943444434     -0.14574947437656     -1.21731811687696
  C   1.41596715668081     -0.18666211274746      0.00431934836968
  C   0.65857338767926     -0.22300730501369      1.18446311478919
  C   -0.72905015269888     -0.21110867043134      1.14356672053271
  H   -1.29231647067842     -0.25035722670533      2.07878553547423
  H   1.16603490250250     -0.23949937360679      2.15156089187599
  C   2.88858760900143     -0.18319219898145      0.04752411755292
  C   3.59358912344091     -0.93580639952442      1.00244615744510
  N   4.91338307922673     -0.96294355161018      1.10030475445379
  C   5.62936005575674     -0.23357377035188      0.23913348995862
  C   5.03734631104775      0.54286765020894     -0.76579898573492
  C   3.65600772360499      0.56568971009073     -0.85729584910528
  H   3.16308608938582      1.18302683917879     -1.61247021795708
  H   5.67994969859590      1.11615548736477     -1.43588060857763
  C   7.08732850416446     -0.28497573817262      0.40495839809494
  N   7.87067751103561      0.39873312300863     -0.32986545253607
  C   9.25342106226550      0.29887397214200     -0.18563989579815
  C   10.01567544657015      1.46347819151922     -0.36067054740371
  C   11.39811221424174      1.42821859458766     -0.21948906987299
  C   12.04631503464694      0.22507502208055      0.06287009938440
  C   11.29829966437962     -0.94332064691431      0.20436276969860
  C   9.91220277601844     -0.91167846987618      0.08533116417165
  H   9.33194778024941     -1.83331176268033      0.17158114192807
  H   11.80051519535959     -1.89328718080095      0.40338428287615
  H   13.13416575159359      0.19567757513731      0.15794792799928
  H   11.97795817962663      2.34620547918542     -0.34265173634016
  H   9.49268464186350      2.39235591115882     -0.59636194410630
  H   7.43165872766812     -0.94357095422959      1.22347322038884
  H   3.04040321633338     -1.56560825575678      1.70894037142732
  H   1.29145049630605     -0.13243224397063     -2.15332094026179
  H   -1.16698522758512     -0.09253585333564     -2.22452555104211
  H   -3.05959643182149     -1.42553943244355     -1.86029711238543
