230
trans_l1_la
Pd   -6.897300    0.081600    0.049300
Pd    8.158300   -0.089700    0.104700
 C   -4.490800    1.674100   -0.237900
 N   -5.418800    1.340400    0.676200
 C   -5.390800    1.938000    1.876600
 C   -4.441500    2.891600    2.201500
 C   -3.453200    3.238500    1.270000
 C   -2.385800    4.194400    1.611100
 C   -2.688700    5.386000    2.301900
 C   -1.694000    6.270500    2.706200
 C   -0.384900    5.908000    2.424300
 O    0.726300    6.598000    2.798400
 C    1.797600    5.881000    2.368200
 C    3.127800    6.213400    2.577600
 C    4.076400    5.317400    2.101100
 C    3.713600    4.138300    1.413900
 C    4.757900    3.194800    0.985400
 C    4.667800    2.443900   -0.196200
 C    5.671300    1.546400   -0.529700
 N    6.739200    1.358900    0.258700
 C    6.844500    2.066500    1.399000
 C    5.894000    2.989100    1.782600
 C    2.363700    3.844700    1.188300
 C    1.398600    4.717000    1.685300
 C   -0.048700    4.733700    1.725800
 C   -1.059300    3.876900    1.297800
 C   -3.497100    2.599300    0.024400
 H   -4.556400    1.185700   -1.211200
 H   -6.144900    1.636000    2.603600
 H   -4.454900    3.333400    3.198700
 H   -3.732300    5.629000    2.512700
 H   -1.927600    7.197200    3.231000
 H    3.411300    7.130600    3.094500
 H    5.133900    5.550600    2.239100
 H    3.828400    2.571100   -0.880700
 H    5.626900    0.964100   -1.451500
 H    7.721900    1.876900    2.020900
 H    6.026300    3.516500    2.727300
 H    2.070000    2.926900    0.675000
 H   -0.819000    2.947200    0.778500
 H   -2.774100    2.836500   -0.756200
 C   -5.503200   -1.828900   -1.817100
 N   -5.501400   -1.253300   -0.606000
 C   -4.575100   -1.632600    0.292100
 C   -3.604000   -2.571800   -0.002700
 C   -3.581200   -3.176700   -1.266300
 C   -2.520500   -4.123100   -1.652600
 C   -2.827000   -5.280900   -2.398100
 C   -1.833800   -6.140900   -2.855400
 C   -0.522400   -5.789600   -2.567700
 O    0.587600   -6.455400   -2.986200
 C    1.660300   -5.759600   -2.526200
 C    2.989800   -6.078900   -2.758500
 C    3.938900   -5.208300   -2.238500
 C    3.578000   -4.066800   -1.489000
 C    4.626200   -3.154400   -1.007700
 C    5.775700   -2.931400   -1.780800
 C    6.743800   -2.057500   -1.334300
 N    6.641700   -1.415100   -0.155600
 C    5.554300   -1.607000    0.603400
 C    4.532900   -2.457800    0.206700
 C    2.229000   -3.785900   -1.244800
 C    1.263300   -4.632700   -1.782200
 C   -0.183600   -4.651700   -1.813300
 C   -1.192200   -3.819400   -1.335100
 C   -4.577500   -2.794000   -2.174900
 H   -6.259100   -1.496100   -2.528500
 H   -4.622000   -1.164800    1.276800
 H   -2.876600   -2.840200    0.763400
 H   -3.871700   -5.516200   -2.611700
 H   -2.070300   -7.040700   -3.423900
 H    3.272400   -6.967700   -3.323200
 H    4.995700   -5.434700   -2.390900
 H    5.908200   -3.409900   -2.751000
 H    7.636600   -1.857100   -1.930800
 H    5.511500   -1.071500    1.553300
 H    3.677800   -2.594900    0.869500
 H    1.936100   -2.896800   -0.682800
 H   -0.948100   -2.915200   -0.774200
 H   -4.611500   -3.211300   -3.182100
 C   -9.719300    2.925500    1.745200
 C   -8.908400    2.319500    0.814400
 N   -8.282500    1.145100    1.090500
 C   -8.449000    0.570200    2.267300
 C   -9.215000    1.131700    3.301300
 C   -9.270000    0.500700    4.585300
 C   -8.432500   -0.725700    4.697900
 C   -7.051100   -0.593300    4.902300
 C   -6.176600   -1.613800    4.544300
 C   -6.669200   -2.799200    3.967900
 C   -5.802600   -3.758500    3.367500
 C   -5.130700   -4.553700    2.731500
 C   -4.466500   -5.521000    1.921400
 C   -3.065300   -5.616800    1.864800
 C   -2.494000   -6.592800    1.047400
 C   -1.143000   -7.015700    0.719700
 C    0.144600   -6.592700    1.051100
 C    1.241200   -7.270100    0.491300
 C    2.583200   -6.862400    0.743800
 C    3.756700   -6.558500    0.874800
 C    5.133700   -6.211600    0.979900
 C    6.105700   -6.909700    0.236300
 C    7.452500   -6.586700    0.347900
 C    7.874500   -5.546600    1.189100
 C    9.308500   -5.250200    1.410900
 C   10.177500   -6.241900    1.827600
 C   11.501200   -5.942500    2.221400
 C   11.962900   -4.645200    2.244100
 C   11.121800   -3.601900    1.793700
 C   11.487200   -2.232700    1.803200
 C   10.637200   -1.288300    1.293500
 N    9.458400   -1.617700    0.684300
 C    9.067400   -2.881100    0.722400
 C    9.816000   -3.915200    1.318200
 C    6.901600   -4.837500    1.913900
 C    5.556800   -5.167200    1.821000
 C    1.031500   -8.368400   -0.379700
 C   -0.242800   -8.796600   -0.720900
 C   -1.305500   -8.098400   -0.166200
 O   -2.617900   -8.355500   -0.408500
 C   -3.332600   -7.453500    0.311900
 C   -4.717500   -7.373200    0.336600
 C   -5.272600   -6.395700    1.149900
 C   -8.064200   -2.981200    3.890600
 C   -8.931300   -1.955700    4.249800
 C  -10.037800    1.090400    5.562000
 C  -10.745500    2.291400    5.292600
 C  -10.679100    2.919000    4.068400
 C   -9.894400    2.352600    3.033000
 H  -10.215700    3.864000    1.492600
 H   -8.728400    2.748400   -0.172700
 H   -7.931800   -0.377200    2.422000
 H   -6.649800    0.357400    5.261900
 H   -5.099200   -1.469900    4.645400
 H   -2.443900   -4.943300    2.457800
 H    0.306800   -5.743500    1.716700
 H    5.791600   -7.715900   -0.429200
 H    8.191100   -7.145400   -0.231400
 H    9.816600   -7.269700    1.907500
 H   12.149500   -6.755600    2.555200
 H   12.966600   -4.410700    2.603500
 H   12.441400   -1.919600    2.230200
 H   10.881100   -0.228600    1.350900
 H    8.119700   -3.137200    0.257300
 H    7.208500   -4.038200    2.593000
 H    4.820300   -4.621400    2.412700
 H    1.901800   -8.873400   -0.802000
 H   -0.406800   -9.630500   -1.404200
 H   -5.335500   -8.051300   -0.253100
 H   -6.357600   -6.294000    1.207500
 H   -8.461000   -3.911200    3.479100
 H  -10.005500   -2.077800    4.092900
 H  -10.099400    0.640200    6.554600
 H  -11.349300    2.732200    6.088900
 H  -11.218200    3.851100    3.888200
 C   -9.930800   -2.563300   -1.618500
 C   -9.084600   -2.007000   -0.687500
 N   -8.360100   -0.894300   -0.977100
 C   -8.468800   -0.329900   -2.165800
 C   -9.264500   -0.846800   -3.200000
 C   -9.251600   -0.237200   -4.495400
 C   -8.318100    0.917000   -4.620800
 C   -6.951400    0.674900   -4.822700
 C   -5.999700    1.632800   -4.488000
 C   -6.397400    2.865300   -3.937900
 C   -5.460000    3.777400   -3.369900
 C   -4.736900    4.554300   -2.768000
 C   -4.027000    5.524800   -2.000400
 C   -2.623100    5.589500   -1.973600
 C   -2.013400    6.587800   -1.211400
 C   -0.647000    7.000800   -0.935400
 C    0.625900    6.540300   -1.275400
 C    1.745800    7.223800   -0.772600
 C    3.075600    6.773400   -1.016400
 C    4.242500    6.436400   -1.122300
 C    5.610900    6.047000   -1.174000
 C    6.576600    6.738200   -0.416000
 C    7.913600    6.361200   -0.455600
 C    8.329900    5.274900   -1.238400
 C    9.756200    4.892200   -1.351500
 C   10.711100    5.809100   -1.749800
 C   12.042000    5.414800   -2.016600
 C   12.429000    4.096300   -1.925300
 C   11.495200    3.128200   -1.489500
 C   11.779700    1.743800   -1.385900
 C   10.836200    0.878800   -0.899600
 N    9.628100    1.305000   -0.423300
 C    9.318200    2.583100   -0.568300
 C   10.175100    3.538900   -1.147700
 C    7.364000    4.582100   -1.988400
 C    6.029800    4.962300   -1.965000
 C    1.575400    8.367200    0.047600
 C    0.316800    8.832900    0.397000
 C   -0.769800    8.127100   -0.098500
 O   -2.071300    8.419000    0.162200
 C   -2.818300    7.497900   -0.498000
 C   -4.204700    7.445200   -0.488100
 C   -4.797300    6.447200   -1.247600
 C   -7.774600    3.153600   -3.860100
 C   -8.719000    2.190200   -4.195500
 C  -10.048600   -0.784700   -5.473300
 C  -10.852100   -1.921400   -5.193300
 C  -10.853500   -2.528200   -3.956900
 C  -10.041500   -2.005100   -2.919800
 H  -10.505900   -3.452500   -1.354800
 H   -8.957400   -2.427000    0.311500
 H   -7.879200    0.571700   -2.331200
 H   -6.625000   -0.309600   -5.167000
 H   -4.937000    1.404600   -4.589400
 H   -2.029000    4.878000   -2.549800
 H    0.759000    5.656900   -1.901700
 H    6.265100    7.578100    0.207600
 H    8.647200    6.909700    0.139700
 H   10.419800    6.849200   -1.911300
 H   12.761300    6.170300   -2.340500
 H   13.444300    3.787800   -2.182200
 H   12.747400    1.354700   -1.706600
 H   11.025500   -0.192800   -0.872500
 H    8.348300    2.916100   -0.211700
 H    7.670000    3.748400   -2.625000
 H    5.298200    4.422300   -2.568100
 H    2.463700    8.876000    0.425200
 H    0.182100    9.701200    1.042700
 H   -4.795200    8.160700    0.085300
 H   -5.885200    6.367500   -1.279500
 H   -8.097800    4.120300   -3.469300
 H   -9.780200    2.398500   -4.040700
 H  -10.060200   -0.350900   -6.475100
 H  -11.476600   -2.329200   -5.991200
 H  -11.466800   -3.411500   -3.768600
