218
Coordinates from ORCA-job _fe6dd
  Fe  12.09598367952501     15.16681109139795     10.81297069155956
  Fe  7.12737946020341      3.94368403477667     12.70067447072418
  O   13.29877482877978     10.59446668315541     13.05707304364027
  O   11.03524576705651      8.63746928151004     15.47445539623687
  N   10.78432534720003     15.96412508319483      9.59718924437729
  N   12.05180156661128     13.70312429162294      9.53906948120461
  N   8.56501848288615      3.51830890155556     11.46459741191267
  N   7.72530208849448      2.30903016141007     13.58841669664782
  C   9.85175283501028     17.00346041450608      9.83239642129518
  C   8.49014476247705     16.75937214459412      9.59801914582201
  C   7.55053557340455     17.76122654077336      9.81904376209534
  C   7.95771922501783     19.01550576818705     10.27147930621599
  C   9.30984503704152     19.25693580017574     10.51629288755990
  C   10.25319305834584     18.25458709241631     10.31430286931161
  C   10.67640220530800     15.29022027930095      8.50546517847114
  C   11.38415970152764     14.03499200291682      8.41682566159473
  C   11.27649459180975     13.15636473244426      7.33941230088576
  C   11.81031010684496     11.88252100262047      7.45889149755342
  C   12.45871799309121     11.51118189692741      8.64799487390970
  C   12.58057714878557     12.48744779188149      9.64802875727392
  C   14.12917114566906     12.00754603183166     14.78576281314167
  C   14.51959301328860     12.16481671644796     16.10115485661806
  C   14.45529577788845     11.10870622980515     17.03735742270634
  C   14.84258882322194     11.28372677223771     18.39074873993967
  C   14.81070243472725     10.22565568441682     19.26784940383563
  C   14.39544288895425      8.95060878755830     18.82196191139849
  C   14.01141027530688      8.74942724509024     17.51472727530277
  C   14.02276263834298      9.82211544563462     16.59089861113216
  C   13.62974707723039      9.65540256051646     15.22658797135156
  C   13.65704274847509     10.73212877944982     14.35598907995877
  C   13.26122348054900      8.31349022774231     14.70389584991056
  C   14.24122815725349      7.46104882670440     14.11144463269830
  C   15.60109682565507      7.84031558093367     14.00064464756872
  C   16.52891144184447      6.96257280677129     13.48857640034553
  C   16.14350028327990      5.67841819193015     13.04290532068379
  C   14.82782261164700      5.29054690890016     13.11783994153847
  C   13.84943844970643      6.16283146821437     13.66034173514953
  C   12.50962975267264      5.75456530003878     13.84364837064697
  C   11.57274537220743      6.55350332400315     14.47297703079453
  C   11.96452626994455      7.86216767532405     14.88927674772874
  C   9.05467672026684      4.24768233767033     10.47009030369024
  C   10.00413477304019      3.75450845365967      9.56330563515696
  C   10.37289390615412      2.40876675739810      9.68025637562326
  C   9.87164087112496      1.64778379873080     10.72861333081924
  C   8.99535651111087      2.24909274154361     11.62796759007222
  C   8.55377600813983      1.64362886313658     12.86310143485036
  C   7.53383446824375      1.89106101603797     14.92915840780714
  C   8.66178235035133      1.67168442108410     15.73233244914476
  C   8.51002844952640      1.26027916559771     17.05295078376207
  C   7.23560289317400      1.05933628539883     17.58070382379576
  C   6.11248926704437      1.28406209484878     16.78402645264138
  C   6.25524786095951      1.71240224847719     15.46807515726435
  O   11.05443557918303      9.19781825144564      7.91814645962008
  O   11.20584973750481      6.16901899413054     10.28282375610177
  N   13.66798380883054     15.81446732673332      9.84700622487735
  N   13.43412195571232     14.34787088699615     11.96099481631601
  N   8.26542834756279      4.91490015888904     13.93917128129912
  N   5.72801568741025      4.36340699605713     14.00621801706423
  C   13.78228623940871     16.26783653249827      8.50916511750105
  C   13.03309135841124     17.35091258853714      8.03680008269859
  C   13.19111418992088     17.78173079872440      6.72344729996422
  C   14.07061926024965     17.12252771911383      5.86390249982344
  C   14.79920536147250     16.02738085026669      6.32524042473792
  C   14.66012819899766     15.60104260863868      7.64260917674478
  C   14.75282210247280     15.62356677281308     10.51190578152383
  C   14.65874374457598     14.87154913023095     11.74146330789060
  C   15.73563659817832     14.60432813679738     12.58248106919636
  C   15.55579377028209     13.70590391664498     13.62663675223460
  C   14.31371121731852     13.08225126250700     13.79649554686338
  C   13.26739479158764     13.48082693658028     12.95151178265091
  C   13.00754764009473     10.16272952057264      8.86192083936293
  C   14.25406596425214      9.98181883501838      9.43252760687822
  C   14.84893824000522      8.70697495828528      9.56056349781607
  C   16.17438732737017      8.54582966101461     10.04013302920364
  C   16.76267276317230      7.30463951716087     10.06109124492040
  C   16.03973710874136      6.17158847335685      9.62542246988586
  C   14.74526046106871      6.29072562001875      9.17430923800689
  C   14.12033361986500      7.56025258563273      9.11790529604469
  C   12.80730388342265      7.73661577549516      8.58597653071989
  C   12.27453254846510      9.00837834453549      8.44940776604609
  C   12.02756280024866      6.57693517503872      8.07885217661539
  C   12.09942728196362      6.19344044183247      6.70358394036045
  C   12.84924910778416      6.92790374479042      5.75355390360483
  C   12.88849637598252      6.52761136442878      4.43634698958664
  C   12.18709100582695      5.37920027912983      4.00533208254946
  C   11.46072776102041      4.63894226563151      4.90747825167728
  C   11.40371575016210      5.02239049179875      6.27183964602871
  C   10.70725056114453      4.25539165055984      7.23164441507551
  C   10.63022989517382      4.62935240765993      8.55876540627269
  C   11.28376284948216      5.82658137125809      8.97465311320508
  C   9.51792596558236      5.33114843224394     13.77284727736843
  C   10.21422719988512      6.06062085574766     14.74816332252836
  C   9.56589258816953      6.28365161614933     15.97360405650193
  C   8.26832232049847      5.83055821908658     16.15354205875233
  C   7.63132548846354      5.17732084484004     15.09905210730923
  C   6.22028444925381      4.87268378660486     15.08135358848969
  C   4.32079008432810      4.38241189615714     13.84836154365316
  C   3.61753426701013      3.26519896431178     13.38406484145868
  C   2.23322604100203      3.31931319092228     13.25709242037546
  C   1.53963183421525      4.49124461934145     13.55992740467944
  C   2.23976454093554      5.61513992810592     13.99615458576607
  C   3.62236399178387      5.56355619153270     14.14126461661385
  N   12.04858335665054     16.58879643279849     12.16066911948952
  N   10.55408327748067     14.52101257545522     11.79627742839245
  N   6.54170328012216      5.55670460124217     11.78778638618726
  N   5.95682406295500      3.07435884193695     11.39335675984885
  C   13.08753172018352     17.46743102234367     12.55358998414761
  C   13.71984753624804     18.31171586633772     11.63334559055638
  C   14.73785058238020     19.15985106488893     12.05717859853477
  C   15.15804021121132     19.15060248291194     13.38757023077931
  C   14.54584913538672     18.29307348141258     14.30095029901591
  C   13.51262985073232     17.45745227617012     13.88995661118217
  C   10.99150718409833     16.53514880656756     12.89450811198163
  C   10.08415498131114     15.43193816710948     12.67249254571342
  C   8.87043762778567     15.25260563924237     13.33612975697894
  C   8.15529238159846     14.08037293508613     13.12481556319345
  C   8.67187242172484     13.10602673764989     12.26003368047353
  C   9.86800581758001     13.40385572251848     11.59418271483728
  C   6.93581007224118      6.80701145430299     11.99412066952064
  C   6.32826207430214      7.91378284423571     11.38526840085861
  C   5.20879959786440      7.67276726634206     10.57729849871284
  C   4.79168884889619      6.36567096355460     10.36250921851757
  C   5.49812455644624      5.32484694234187     10.96483858562895
  C   5.25790350761266      3.92074626061905     10.72030394954051
  C   5.96502746567090      1.72616760179233     10.95910402772703
  C   6.19153864151164      1.45730504981081      9.60155613293532
  C   6.22961648133132      0.14366286964211      9.14592703218946
  C   6.03353920757722     -0.91161768485008     10.03584227451080
  C   5.81086397906815     -0.64581053535617     11.38737634566977
  C   5.79286960015697      0.66442229708651     11.85481581904326
  C   6.90056542405395      9.25300969522557     11.60266013565964
  C   6.09023535424783     10.38846637750120     11.74056302086490
  C   6.65368305708371     11.63942020467406     11.96083622942494
  C   8.04455559119983     11.79231291478368     12.03914157687859
  C   8.85520619556781     10.65567368240269     11.89580951130052
  C   8.29312545902071      9.40733218243234     11.68072280390263
  H   13.16677038402340      9.64779203724452     12.88902966535537
  H   11.46864185992807      9.45400633449419     15.77115723368472
  H   8.16900249509524     15.76963193171660      9.26436771612010
  H   6.49242466896312     17.56103427936940      9.63600469937458
  H   7.22151035314942     19.80528376125690     10.43568383493967
  H   9.63579785126024     20.23916975338921     10.86511922311291
  H   11.30371035280771     18.45768282647825     10.51270438801860
  H   10.01079930470899     15.60434261042887      7.69214701735418
  H   10.75499503776286     13.46718759270780      6.43226950209313
  H   11.71554455282621     11.16692482025451      6.64237433480479
  H   13.08182097242269     12.24582665020117     10.58819726446801
  H   14.88944293430468     13.13758751057055     16.43598611118798
  H   15.17535728425389     12.26954185654846     18.72558721637707
  H   15.11501769526933     10.36351228382934     20.30735369852068
  H   14.38907461626465      8.11308339353408     19.52329060963671
  H   13.70873084028842      7.75680412708474     17.17495457637848
  H   15.90995063399104      8.82399843248345     14.35924758426705
  H   17.58020106566181      7.25531404745935     13.44070559899593
  H   16.89802753995391      4.99193425067814     12.65360436598728
  H   14.52425703823930      4.29368552063416     12.78805041939545
  H   12.23202550165232      4.74211749443918     13.53999560431357
  H   8.69640330035057      5.27470792016128     10.38542133634724
  H   11.09499540688629      1.98111294521925      8.98103776059521
  H   10.17754913753767      0.61003307245167     10.87355253860853
  H   8.97378542196687      0.68473215031631     13.19096536264284
  H   9.65874014794792      1.84967090233617     15.32180295892902
  H   9.39372429728126      1.09384942375948     17.67280219578926
  H   7.11593927888473      0.72609207403553     18.61362727607026
  H   5.11179537063986      1.11921628776100     17.18933466582412
  H   5.36948859194965      1.88430648656902     14.85892694921665
  H   10.72048918595137      8.33727868775469      7.61733101130165
  H   11.82938650163167      6.89791307340394     10.43078523333713
  H   12.34397705709973     17.87492040424079      8.69686102283557
  H   12.62523011103889     18.64642872822575      6.37016397620138
  H   14.18821078838265     17.46423625571795      4.83340621873852
  H   15.48294923948506     15.50147554900975      5.65521220298453
  H   15.21468078082865     14.73040228137496      8.00139136437011
  H   15.73026753890701     15.95212781217547     10.13768009915027
  H   16.70481861224577     15.07059469349543     12.39537502653355
  H   16.39094568609307     13.43998898701830     14.27861437731128
  H   12.26708846473008     13.06541612100414     13.08284823057735
  H   14.83722938803270     10.85631290799341      9.73190770830474
  H   16.73101322776760      9.42812841807207     10.36622328530832
  H   17.79397363408838      7.19058587450177     10.40074720642878
  H   16.52142458578795      5.19121212909815      9.63197899322478
  H   14.20000577493465      5.41347174247566      8.82089066119859
  H   13.40824009022028      7.80730930521722      6.07988318811343
  H   13.47653192267292      7.09851049761400      3.71420262372846
  H   12.23334834366739      5.07826967995262      2.95667383933740
  H   10.92658648221964      3.74167042324319      4.58450899593444
  H   10.21281940321161      3.33634791647432      6.90613758824687
  H   9.98461066806079      5.13072121672658     12.80563127477379
  H   10.07688719677673      6.82203190003948     16.77152397679296
  H   7.73477040985849      6.00182920966906     17.09039625084168
  H   5.58927267556649      5.14848257165347     15.93518631659505
  H   4.14374115550339      2.34441569407982     13.14028872612143
  H   1.68955608307316      2.43374027118770     12.92123899520447
  H   0.45313947967587      4.52747440912080     13.45502053675899
  H   1.70529906763873      6.53940791815428     14.22684622608134
  H   4.17412349588913      6.45123335992625     14.46014403677211
  H   13.40942765102566     18.32355077792568     10.58967210755370
  H   15.20583143848730     19.83794409602744     11.34028155302939
  H   15.96355848518341     19.81309570584468     13.71189444066872
  H   14.87361267554697     18.27566598497363     15.34261698841027
  H   13.04966308500634     16.76656947654592     14.59864653779482
  H   10.80186604405405     17.25797184742477     13.69720922031870
  H   8.50757590150873     16.01876206662999     14.02368223999567
  H   7.22028141247562     13.90499617254940     13.66128566587760
  H   10.27317256913332     12.70260058582950     10.86386976438317
  H   7.77159112671171      6.95259440058869     12.67999798587804
  H   4.69157222379033      8.49968278244699     10.08606645504982
  H   3.93937255099453      6.14355275855502      9.71778979829840
  H   4.54676478481500      3.60530346817053      9.94722730748125
  H   6.37120266885986      2.28440943968901      8.91044096858225
  H   6.41162086358502     -0.05722843626442      8.08793673280504
  H   6.05424952845146     -1.94303442661320      9.67701628012515
  H   5.64514163486456     -1.46830644871893     12.08650703355234
  H   5.62900104881644      0.85496606386469     12.91443148315647
  H   5.00275867502696     10.29466363320392     11.69629736514030
  H   6.00028823241404     12.50991350967239     12.05353495431251
  H   9.94137394114062     10.74325919626320     11.97720400511927
  H   8.94926955431180      8.54359500140445     11.54824735997982
