230
Coordinates from ORCA-job _fe7ll
  Fe  12.34776096593038     14.73183933447907      9.57627833039085
  Fe  7.36275485277652      3.97014229409249     12.72487938099083
  O   11.92731077488375     10.48250003342298     12.67291728570259
  O   10.73669812428807      7.45119364538959     14.44814284320923
  N   11.24104311734315     16.29845310168777      9.85865386038414
  N   11.94515925504347     14.36743521565081     11.45317249580974
  N   9.28769912278036      3.97440670403665     13.04379135287991
  N   7.66777217632101      2.09479834259472     12.28150878425077
  C   11.01557976146781     17.39892893074301      8.98517829775008
  C   10.26682608567957     17.22908013612835      7.81756687575238
  C   10.08513244348418     18.30387412865187      6.95363404920364
  C   10.65527636580899     19.54503430055239      7.24150183390913
  C   11.38139237031515     19.71565771988335      8.41834438432165
  C   11.55611457031239     18.64932316468166      9.29975311087426
  C   10.73559615865785     16.34283884069669     11.03450589357629
  C   11.06518457389020     15.26780630345561     11.94264388119060
  C   10.54800313883110     15.16880369931097     13.23093816253135
  C   10.93702379617622     14.09974088722383     14.02554249451238
  C   11.85290511739946     13.15760994421015     13.53592959605313
  C   12.33484197928916     13.35549242704205     12.22670139874295
  C   12.30784292099191     12.05423142305822     14.40257723342276
  C   12.63613879908114     12.33218373865987     15.71579731209781
  C   13.07585692234089     11.32729593186330     16.60183714877692
  C   13.42437407613455     11.62764904400362     17.94345286488964
  C   13.84881546845605     10.63443554642584     18.79252944000693
  C   13.93509736596405      9.30280156246621     18.32918933931982
  C   13.60672964277458      8.98296906108725     17.03060192052531
  C   13.17191275341479      9.98461718982483     16.12723258076340
  C   12.81623996060687      9.68569090942079     14.77182180059179
  C   12.39444719990557     10.70572580649267     13.93546981769770
  C   12.80682406778802      9.93550781081641     11.71705124618294
  C   13.03185459671072      8.28676651465663     14.29188974353140
  C   14.40127971158663      7.95936804740297     13.98936261137258
  C   15.44530187585812      8.91582374801721     14.06744504811710
  C   16.74925281132753      8.56490625440569     13.79085699448835
  C   17.08529594190988      7.24491905915044     13.42181561338414
  C   16.09280749576122      6.30159686814704     13.31125589719841
  C   14.74364023007933      6.63928416335457     13.58463992737064
  C   13.71826862348363      5.68025582364073     13.48732578657384
  C   12.40120916142535      5.95935878231981     13.79640845359921
  C   12.05446584029185      7.30204873250919     14.19740573452867
  C   10.17496079929683      8.57135516089496     15.09273442120902
  C   10.08639957846408      5.00021058864455     13.32189471649824
  C   11.43470394387079      4.84506053080873     13.70009380215038
  C   11.86861851829659      3.52202939857999     13.90648385125765
  C   11.04227751318234      2.45200682568963     13.60099778101631
  C   9.75862647678960      2.71401589881356     13.12875896867464
  C   8.85045524558596      1.71414235673218     12.61851174713008
  C   6.87954277732343      1.21173710686745     11.50306404544515
  C   7.45108464552210      0.61196700130039     10.37150015173057
  C   6.70336120810834     -0.26553688464441      9.59245573186730
  C   5.38297933716528     -0.55461236553956      9.93386308019679
  C   4.81095189576049      0.04731315765793     11.05497812356708
  C   5.54727891820346      0.93735338522085     11.83098358129207
  O   11.98929106606710      9.71029388126922      7.80560317704885
  O   10.20664308241968      6.91638411683922      9.62041023527520
  N   14.00477971065689     15.67901103952578      9.99465828917443
  N   13.55382557516176     13.20118370170146      9.29036158851679
  N   7.46015126167368      4.33441720310262     10.80989139181752
  N   5.42680039012926      3.97594010765638     12.39355587852162
  C   14.22936381047605     16.97397466671467     10.52957172410766
  C   13.72099368210860     17.29679369363152     11.79203150660678
  C   13.96222585910707     18.55625645802641     12.33267289414465
  C   14.69832666883212     19.50308052461840     11.61821701736169
  C   15.22077985439850     19.17168200938355     10.36924901622495
  C   14.99767891037312     17.90867495802343      9.82737494939881
  C   15.02698064412985     15.00744612244134      9.60603307352534
  C   14.82359659939502     13.64431740946708      9.18209064576024
  C   15.86140961265039     12.81178589832411      8.77317936490434
  C   15.58909039609355     11.47211474020435      8.55122206508571
  C   14.29422989339681     10.96830942934579      8.76146807998624
  C   13.29464453548950     11.91211733175566      9.07181999283843
  C   14.09071999277138      9.50401793472546      8.77602062181331
  C   15.10257045449582      8.74147423927194      9.32374669661711
  C   15.04795616737563      7.33496653367601      9.37889728150410
  C   16.11881326263654      6.57916052928814      9.91689901885461
  C   16.06049651706980      5.20653607229124      9.94057770504871
  C   14.91414582575754      4.55126247586033      9.44400167345382
  C   13.85947983559342      5.26524634749535      8.91696833864891
  C   13.89733871253160      6.68184521102168      8.85626500375120
  C   12.81861975009634      7.45812802436973      8.30060709566431
  C   12.91627431336564      8.84467738748164      8.26748606137137
  C   10.91504717721349      9.31940651596108      6.98091342879768
  C   11.70594781509273      6.63871929307221      7.73287467072341
  C   11.92127405524211      6.05655623663068      6.44016333306059
  C   13.06995749630541      6.35151844025542      5.66430462398095
  C   13.24118911532709      5.78825977042118      4.41907089903068
  C   12.28021428028990      4.90173285845838      3.88512450885570
  C   11.15643313407794      4.59379987679778      4.61293949312726
  C   10.95365435958604      5.15996702303954      5.89721056576394
  C   9.81926249279126      4.83962541857494      6.66964216262396
  C   9.61747747822331      5.37382203494707      7.92701784141891
  C   10.56601151717916      6.31234263671756      8.44989325110979
  C   11.09996206670639      6.93297858430472     10.71298755859783
  C   8.51688494078444      4.66389904485820     10.07529673464662
  C   8.43683956435662      4.95473368986767      8.70067730010387
  C   7.18736489576384      4.78580537411882      8.08735670106694
  C   6.08815381323427      4.40832179232428      8.84614785434000
  C   6.25189858656090      4.22713588580917     10.21777278987377
  C   5.15458996353437      4.05478949576715     11.13802524721993
  C   4.35724968243173      4.15900835713987     13.30653591411180
  C   4.15818187687331      3.30533044660397     14.39709928539269
  C   3.09096177241936      3.52369555066134     15.26325392025207
  C   2.23262330993452      4.60725083950617     15.07165378693863
  C   2.44242654264357      5.47340962235488     13.99970283564118
  C   3.49761740719130      5.25198015678790     13.12040029491350
  N   12.54389273971242     15.04310517993042      7.64126281717034
  N   10.81731370389311     13.69002624235825      9.00376955846663
  N   7.12896880890552      5.82967002036680     13.18329001956106
  N   7.19681286127745      3.73029681458151     14.66260284936637
  C   13.59645282999255     15.65268755854934      6.89973093243098
  C   14.42487444992758     14.84245292679525      6.11378587014972
  C   15.43495010825812     15.42022983553835      5.34866401064101
  C   15.60739244499965     16.80355658423420      5.35049963997340
  C   14.77167168587415     17.60492401184977      6.12925181400556
  C   13.77161760468078     17.03744047081830      6.91501487050845
  C   11.63578229438447     14.45501690823328      6.95208816956547
  C   10.62298370470870     13.71893519138416      7.67074436644810
  C   9.55651196972472     13.05533787202381      7.06545334498917
  C   8.70818359921726     12.28940022314234      7.85293960388383
  C   8.95805066099806     12.18558929336232      9.22767247235712
  C   10.01686513743480     12.94047029948257      9.74925650606051
  C   7.25098418793574      6.88025257951024     12.38714670887306
  C   6.92576468423322      8.18315489884838     12.78283591259025
  C   6.39594387744955      8.35157001411544     14.07045132640665
  C   6.28897009871838      7.25314258928709     14.91425492949680
  C   6.69457104273036      6.00190855619671     14.44725263383052
  C   6.80667419527758      4.80709952735272     15.25273309911876
  C   7.60920612416117      2.64649712430585     15.47584631315410
  C   8.50104944067042      2.89241802335294     16.53052684093178
  C   8.92460502999839      1.84852037171011     17.34657543263947
  C   8.45952393645459      0.55305867584299     17.12333149933130
  C   7.58105509798879      0.30516273560653     16.06774030828305
  C   7.16728028187577      1.34034523040054     15.23517306775497
  C   7.25062404668843      9.28335314996997     11.86440211043655
  C   7.26734851442018      9.07328360441335     10.47720008909771
  C   7.76000658025778     10.04193677747227      9.61930047512799
  C   8.25212005059837     11.25526387619540     10.11885127174416
  C   8.16325981194230     11.49624613987070     11.49833672083104
  C   7.67059141455287     10.52640080956894     12.35707124155247
  H   9.79104303741063     16.27061094498371      7.60953833547285
  H   9.48287628619534     18.17610782827763      6.05155957153921
  H   10.51710785238682     20.38241993834786      6.55393241305781
  H   11.81431082130658     20.68870062938719      8.66068975851808
  H   12.13260566188579     18.77781683031663     10.21710679343182
  H   10.09152772118890     17.16941715286795     11.35977085308006
  H   9.84238983860757     15.91830870838378     13.59472880571985
  H   10.52229070364848     13.98384205096282     15.02903365091664
  H   13.06990162615597     12.67436011876525     11.79767000589364
  H   12.59515583669010     13.36188749124348     16.07975658703613
  H   13.34938838781662     12.66117041797268     18.29071799843226
  H   14.11753332389627     10.86908840649100     19.82419494841156
  H   14.27074994069662      8.51851215990932     19.01129606867960
  H   13.68340111104225      7.94931568438051     16.68985564114513
  H   13.11574847589097      8.91095107787794     11.96159902019694
  H   13.71630895635125     10.55074850913223     11.60818779798620
  H   12.26084299224041      9.92523649017006     10.76719070167893
  H   15.21855729534338      9.93844170861785     14.36980329085409
  H   17.53824447343621      9.31563993595734     13.87787058055829
  H   18.12767469831890      6.97849784177294     13.23452278944434
  H   16.32891687134184      5.27411996523023     13.02622145397059
  H   13.99280305735022      4.68296204649105     13.13928959987650
  H   10.16844697999645      9.45065424485596     14.43300213871935
  H   10.70018369402428      8.80884593919420     16.02795834451908
  H   9.14042043766906      8.28847703421815     15.32793785448782
  H   9.65714251307747      5.99391034561379     13.23044940204999
  H   12.86684850938250      3.32931522057460     14.30253782077507
  H   11.38330236444018      1.42232431152398     13.72449900081467
  H   9.19213734314136      0.68272341900175     12.46692855209012
  H   8.47810403859868      0.85787700852118     10.09056660530674
  H   7.15700374185447     -0.72758536583079      8.71285214305411
  H   4.79830876667961     -1.24896188499539      9.32613933076801
  H   3.78032288604216     -0.18329435954820     11.33315104079053
  H   5.08892866441909      1.39727507867050     12.70467715548646
  H   13.18492039902357     16.54618617492312     12.37129900686115
  H   13.58491449364525     18.79787249500459     13.32851872911920
  H   14.87852657240224     20.49273307520978     12.04373547347060
  H   15.81397697693371     19.89999558087952      9.81181676371732
  H   15.39847109272345     17.65338633180951      8.84589665752548
  H   16.04493004781135     15.41194771271819      9.66995809853020
  H   16.86725806256457     13.21520042863388      8.64246580439458
  H   16.38750374942361     10.80392912531969      8.22336024840241
  H   12.25790811239357     11.59388335343524      9.16779652145756
  H   15.98036636560236      9.23280507942336      9.74874750015723
  H   16.99541355248919      7.10692855672293     10.29863493492301
  H   16.89713203436624      4.62291490796085     10.33036244095019
  H   14.86917078888204      3.45970466310671      9.46037237099848
  H   12.99472533982892      4.73019035751775      8.52416756431342
  H   11.25444775008700      8.69942047529405      6.13974518173281
  H   10.14581698307419      8.77929028891205      7.55173167363851
  H   10.48933218845517     10.25099258441501      6.58698413834375
  H   13.82583365462059      7.03127840610297      6.06035417394796
  H   14.13465706591065      6.02467574868985      3.83696541450232
  H   12.43475748807668      4.46293157278298      2.89771096338875
  H   10.40588070086383      3.90738718824175      4.21314323791904
  H   9.11140021642159      4.10917324298539      6.27032053282979
  H   11.43500888130950      5.91560429742490     10.97450538395155
  H   11.98823798318962      7.54337919801989     10.51831381235148
  H   10.55264055478977      7.36829105559216     11.55910370090944
  H   9.47364387045091      4.70831122619796     10.59487743177179
  H   7.07157962613589      4.98286343101229      7.01937980696002
  H   5.10178694014421      4.29229339165156      8.39291221038081
  H   4.12136651356654      4.07038492281638     10.76939888850000
  H   4.82176542146056      2.45841066960427     14.56428598621736
  H   2.92624679097814      2.83696366394155     16.09645496630913
  H   1.40113558474923      4.77632586759995     15.75958386779363
  H   1.78037015018391      6.32844807047813     13.84563283417618
  H   3.67889169942101      5.94542151062697     12.29559337623411
  H   14.27881687254898     13.75930233663861      6.11138786458626
  H   16.08211151202672     14.78723855464447      4.73727791546093
  H   16.38714431715025     17.25887312145588      4.73559172121551
  H   14.89169615270269     18.69078581021346      6.12018815871717
  H   13.11099443668355     17.66668922249783      7.51026954331546
  H   11.62219435921107     14.49663502905057      5.85587474163753
  H   9.40714319071345     13.13500621193297      5.98664862471278
  H   7.86308182587742     11.76908312794596      7.39793449671670
  H   10.25046906208675     12.87826067610873     10.81066628052474
  H   7.67266148764490      6.69814832283735     11.39857637903624
  H   6.07407269508884      9.33678084686172     14.41513878170794
  H   5.90309732091163      7.35811348462703     15.93010061169130
  H   6.62932487158050      4.84612645747763     16.33424000677344
  H   8.88669251905666      3.90272909213205     16.68722442469425
  H   9.62418359639524      2.04836432348794     18.16136882618284
  H   8.78445954834622     -0.26563508385972     17.76930418584152
  H   7.21191626927160     -0.70735040207394     15.89009071961228
  H   6.48609330655128      1.13013374777376     14.41215376245478
  H   6.90734166043833      8.13331281972441     10.05589101447891
  H   7.80820527411698      9.82530821916484      8.55042500726837
  H   8.49547937430261     12.44852742863094     11.91604354928417
  H   7.66020482786951     10.72358697206354     13.43110261897267
