260
Coordinates from ORCA-job _zn2ld
  Zn  9.04583455744571     19.09212236969304     40.08959585005148
  Zn  10.33133581969853     18.08201501808847     26.71290604583031
  O   7.08969400708891     19.35379336264413     34.83976761493123
  O   5.90045965712987     20.25423528400191     31.45975250565082
  O   9.73650837840650     16.31853452940229     35.56629566166890
  O   10.26683002955901     13.78747737449477     32.17260812215576
  O   11.02912304324017     20.56372613320666     35.34268691635143
  O   13.17460854020123     21.71145325499695     31.92163085584864
  N   9.43296460911395     21.09068747403825     40.90154543402522
  N   8.01818889394151     20.42931074485722     38.66689572857104
  N   8.43942218134753     18.63988012108523     27.67746470136819
  N   9.59763547324024     19.69873852568170     25.44357277005637
  N   7.25096802609008     18.66493981404117     41.19666254350643
  N   8.36852147204928     17.24138418910324     39.18786080991457
  N   10.68908792836658     16.41253080530095     28.05277673117675
  N   9.63218944761682     16.40212852875398     25.56970588155453
  N   10.40390664880673     17.97732704492670     41.43438100938580
  N   11.00229850007210     19.39155218459171     39.18853444178748
  N   11.31475154514685     19.63385763555807     27.92898665930130
  N   12.36419885130612     18.15857590876363     25.90771905737284
  C   10.32069495041644     21.39071037774559     41.95369158619627
  C   11.46958555143023     22.15719350690691     41.71873415455494
  H   11.69329024231388     22.50356581605333     40.70619103602397
  C   12.33198766377783     22.44811464976439     42.77205754169537
  H   13.23082401511598     23.04114789693372     42.58926774000301
  C   12.04517963716914     21.99198950153399     44.05844875234491
  H   12.71497017578568     22.23433858912839     44.88622704560893
  C   10.89879168857519     21.22900375593422     44.28634215575944
  H   10.66498402773812     20.88281784659578     45.29585917271591
  C   10.04299249724955     20.90874532429313     43.23700460840932
  H   9.13989788166623     20.32137278699643     43.41190260296339
  C   8.99170240209237     22.03005522159084     40.15626277277050
  H   9.21890782970977     23.08616467423513     40.36510767144379
  C   8.11336046612830     21.72281778863169     39.02789389535997
  C   7.36697250044486     22.71615728645356     38.39883985002493
  H   7.46959074040871     23.75849251038488     38.70851112898886
  C   6.47386842095119     22.34894406037554     37.39731147626256
  H   5.86073771215687     23.10361468007369     36.89981861243403
  C   6.36621276762848     21.00794420317687     37.01903178224421
  C   7.19280699387947     20.08455656230719     37.68953119555049
  H   7.15352991655368     19.02480958854821     37.42705915455550
  C   5.38593167652466     20.56207927093878     36.01277921495772
  C   4.06038296417128     20.93447199697865     36.12011085743482
  H   3.74160215953438     21.58098733280409     36.94225468758378
  C   3.07938712676829     20.44283058239593     35.22823830941677
  C   1.71092862248943     20.79048265277013     35.36740589994855
  H   1.41614479450708     21.46854103337988     36.17207945920295
  C   0.76800758720796     20.27952121081949     34.50771704043410
  H   -0.28375320796713     20.55038308367269     34.62083185697806
  C   1.15712576539795     19.39249526890484     33.47906634726624
  H   0.39845044165595     18.97860935295345     32.81108925070547
  C   2.47872434082858     19.04190549519069     33.31447934755707
  H   2.76590704794339     18.35078299178134     32.51912132009387
  C   3.47580922628490     19.56042909550225     34.17750815843235
  C   4.86089542013036     19.24483176389806     34.01955389833255
  C   5.78006669479736     19.71151865951054     34.93825363981274
  C   7.91945608807480     20.26307563438312     34.13294688871982
  H   7.54172260391742     20.42838348464089     33.11459363273405
  H   8.92039093724713     19.82137100533871     34.09059261383450
  H   7.98772305975457     21.22752279471634     34.65801945744509
  C   5.31438276949619     18.38663867432124     32.89213896564826
  C   5.27616134866902     16.96665422464973     33.05595669447519
  C   4.80532410576789     16.36459429238913     34.25072901032512
  H   4.46295500205683     17.00335714396924     35.06652081994337
  C   4.75656296935996     14.99458961147528     34.37737288519527
  H   4.37255314672351     14.54881714879008     35.29789477264054
  C   5.16811608297183     14.15479361628742     33.31796756863564
  H   5.09458347425127     13.07023399843522     33.42346554842103
  C   5.63525552028203     14.70903915627161     32.15007749894152
  H   5.93911648461135     14.07038817121542     31.31679081974047
  C   5.71407578042520     16.11732143461482     31.99651625388929
  C   6.20337736444677     16.70757615164456     30.81024438704855
  H   6.51433070430520     16.05234906993362     29.99219379874295
  C   6.23378064814264     18.07700975815552     30.64082675362499
  C   5.76983170088923     18.92628341106179     31.69919270074906
  C   4.85939245660040     21.16888106202752     31.75800182036162
  H   3.87021163749137     20.70121954278633     31.64923016405598
  H   4.94939452856843     21.99262031082979     31.03580926127530
  H   4.95439314175500     21.57652900392384     32.77461860644941
  C   7.89909470430591     18.14074992991839     28.78122190447651
  H   8.42393754577536     17.30089938868072     29.24553656690569
  C   6.73995317108672     18.65985958051542     29.38492905069625
  C   6.12020855443737     19.73296443961209     28.72897322539048
  H   5.19244170585914     20.15176756714652     29.11645925628575
  C   6.68314644795730     20.25394307055699     27.57150713847944
  H   6.21389821556801     21.08971595063969     27.04775908438604
  C   7.86306214779158     19.69510108348215     27.08011701733864
  C   8.54305767463162     20.25077952092296     25.90981396288297
  H   8.11614633953862     21.15289224177777     25.44672944723044
  C   10.28591170689364     20.32372970754307     24.37929292897029
  C   10.67249035851418     21.66682403122718     24.48585620187837
  H   10.46667643903738     22.22000209719997     25.40593212397225
  C   11.34006047456158     22.28048821703225     23.42934490423571
  H   11.64747050397430     23.32497591804379     23.51495840597439
  C   11.60593440832202     21.56664810155744     22.26115995583848
  H   12.11433479071563     22.05400869711352     21.42651680884319
  C   11.21802541232506     20.23017477485178     22.16061667343494
  H   11.41483459701067     19.67084282741400     21.24327996137279
  C   10.57925425690634     19.59606708042245     23.22191785085216
  H   10.27388373121879     18.55314640259266     23.14145685942246
  C   6.82836936885228     19.37293405760587     42.34112245232738
  C   6.82132799601745     18.74653763000341     43.59334289213034
  H   7.13976046901949     17.70522917040233     43.68196716753566
  C   6.46216802636278     19.47709126266852     44.72420368444620
  H   6.46441748084934     18.99135666992540     45.70244043786647
  C   6.10281682244889     20.81885830410820     44.61023791629786
  H   5.81718802890929     21.38610438787162     45.49840004214921
  C   6.10408107842808     21.43580534903189     43.35774460206178
  H   5.80685558879815     22.48269140670366     43.26676610616735
  C   6.47795752531457     20.72236354354563     42.22450573854059
  H   6.46742008792247     21.19339475111410     41.24050521649604
  C   6.70969845870482     17.55130932039846     40.88124499141729
  H   5.84387353110925     17.15314534368572     41.43099508404021
  C   7.27041724077169     16.74923460852493     39.79246341965186
  C   6.76132337487532     15.49633777216443     39.46087975105901
  H   5.86407970003367     15.11894926406687     39.95629792553824
  C   7.42820806399918     14.73113945866623     38.50865565957363
  H   7.04581058571956     13.74481971424841     38.23640171105887
  C   8.58962622354077     15.22196067583529     37.90123725680856
  C   9.00322960346581     16.51794590387144     38.27946516489111
  H   9.89855152086402     16.95880153539982     37.83734978444015
  C   9.38967931139398     14.41032733943068     36.96969269958095
  C   9.60636731454858     13.06558143179180     37.20967106801702
  H   9.16800022145319     12.59053013156809     38.09130332282899
  C   10.44080324318876     12.28677042731630     36.37678182981011
  C   10.68051652793829     10.91492239103971     36.64774450554560
  H   10.19034562417047     10.45049360180712     37.50680114687429
  C   11.52222858828987     10.18116669017165     35.84658178667725
  H   11.70439609491503      9.12622720100060     36.06158878440117
  C   12.16411603520795     10.79379548135398     34.74716420638799
  H   12.84013855167106     10.20377912825453     34.12409652310933
  C   11.95337789089772     12.12348030739064     34.45900775549606
  H   12.46188742155699     12.58843098178788     33.61311085308930
  C   11.08476765184080     12.90393941588603     35.25886641469165
  C   10.83164007153944     14.28410813781951     34.99187335535130
  C   10.00043771792173     15.00516979606241     35.82601714846481
  C   8.55127467777213     16.54946840895233     34.82057905517792
  H   8.73931716470363     16.43667983074143     33.74097055407080
  H   8.20980995448081     17.57149676382875     35.01730341027310
  H   7.75084968624103     15.84967906965786     35.11244630596388
  C   11.50044917333312     14.98237654458348     33.86512433395224
  C   12.59116257565264     15.86085575466848     34.15904497935217
  C   13.06979645327399     16.04984141028057     35.48150899303371
  H   12.57047422513937     15.53589882588546     36.30374207324481
  C   14.17352016908609     16.83345612021066     35.72906073850186
  H   14.54141061983220     16.94060718476945     36.75226954154023
  C   14.85644332422979     17.47577979696438     34.67151586793037
  H   15.74614729167890     18.07398311410307     34.87963585590672
  C   14.41551843676945     17.31553512168299     33.37976026386137
  H   14.95509692013016     17.77853683729715     32.55008184836039
  C   13.27981371011742     16.51400921078987     33.09333739682822
  C   12.82995468130738     16.31554109998289     31.76923552944897
  H   13.35581617827439     16.82459604098223     30.95677091972358
  C   11.79241439441279     15.45203173913625     31.47945532215309
  C   11.15244948539638     14.74017238343563     32.54611650298907
  C   8.91721341483048     13.82466232307763     32.58331724294280
  H   8.43328210616134     14.75970528575463     32.25887255455173
  H   8.80428057300631     13.71604695801167     33.67143961081199
  H   8.42419802957644     12.97604057731943     32.09308248532520
  C   11.14230231306967     16.44776529150581     29.29731797718786
  H   11.36243745603735     17.43717417446405     29.70946725511506
  C   11.31802617432875     15.30123913032334     30.09244152454665
  C   11.00674970449715     14.06884534220383     29.50011881943499
  H   11.13328483534494     13.14566614361174     30.06496827137272
  C   10.54312031649703     14.03331528384992     28.18900605625407
  H   10.30373418262622     13.08296882060461     27.70682996016319
  C   10.38235832010209     15.23000731714271     27.49295904779339
  C   9.86228283033469     15.27435699458429     26.12371202595353
  H   9.66189283414111     14.32422341045060     25.60695181585769
  C   9.18492181102019     16.47038874219938     24.23360623284801
  C   9.90209619714488     15.84337358278428     23.20808385967671
  H   10.82105384153945     15.30046959385334     23.43868237783939
  C   9.46776044077225     15.97126935061465     21.89070211277438
  H   10.03451875039350     15.49381146665831     21.08849007256708
  C   8.31768894718270     16.70252071638834     21.59711639269758
  H   7.97684140366554     16.79365142488160     20.56366812592593
  C   7.60018425616267     17.31615154203442     22.62597566512327
  H   6.69121931845570     17.87637516686813     22.39699475468406
  C   8.03784608108007     17.21710436774234     23.94190715693020
  H   7.48030045738574     17.68822463232191     24.75312636799541
  C   10.06529229541523     17.24597057804172     42.59492955085505
  C   10.55735796980487     17.62052551141317     43.85060649958241
  H   11.20441052082882     18.49489375909151     43.93962943923171
  C   10.18627859103490     16.90130526855695     44.98396790476826
  H   10.56561865409016     17.20336238967549     45.96272502032429
  C   9.34190197876648     15.79799491557240     44.87266723538106
  H   9.05880267856197     15.23192173844556     45.76252295402074
  C   8.87533303136261     15.40831184542966     43.61625710649291
  H   8.24125646170028     14.52380329033081     43.52115440582468
  C   9.22473437616090     16.13257470371793     42.48074272671627
  H   8.89156774129919     15.80725864355272     41.49558774301000
  C   11.63295009238735     18.20758716072989     41.16851561380122
  H   12.44248995353885     17.82025215355326     41.80511935834115
  C   12.00389542670289     18.98485057926302     39.98677604851176
  C   13.33037826404341     19.30413308806166     39.70356523089678
  H   14.13199662264692     18.94821662349877     40.35405181093714
  C   13.60802523677306     20.09121358020810     38.59296649944049
  H   14.64297829014537     20.34642454168340     38.35588061753072
  C   12.56539054086045     20.55871773558176     37.77986633841535
  C   11.26336258365257     20.14370022201569     38.12989390969480
  H   10.41075662264921     20.45649977709391     37.52510759157335
  C   12.80919627557589     21.49914738904132     36.67257511711428
  C   13.80188307620360     22.45707605011719     36.79400047581991
  H   14.40950588956077     22.49918392277602     37.70136845139822
  C   14.02110984756147     23.44413136946983     35.80941217815313
  C   15.01931856109669     24.44028383186815     35.96964394143424
  H   15.64645726154823     24.42456998415837     36.86444547879114
  C   15.18999972069053     25.41616860685436     35.01750223561316
  H   15.95706311065785     26.18257326119465     35.14731573253205
  C   14.36397000412121     25.43655503431121     33.87075803102082
  H   14.49979854636356     26.22459260266443     33.12655351015294
  C   13.39053831988589     24.48075882003248     33.68532608748266
  H   12.75575778005995     24.51006896985648     32.79830288250851
  C   13.19526645124348     23.45774539383094     34.64387817358413
  C   12.19802939975645     22.44698036022467     34.49471964984274
  C   12.01131331147433     21.50056362953661     35.48564333422881
  C   11.44819933606966     19.25787076765532     34.98293504521680
  H   11.54674718177480     19.16602366054974     33.88929739662297
  H   10.69361723707850     18.54159935465879     35.33217294628368
  H   12.41291852871423     18.99623816896553     35.44428311692755
  C   11.33606104248837     22.40152290716167     33.28645883168902
  C   9.98473102946671     22.85778458983485     33.35140107945988
  C   9.45445955938553     23.46935827871718     34.51593373725715
  H   10.09307188977776     23.57101813162374     35.39503844755041
  C   8.17114913144327     23.96642067876489     34.52579349102031
  H   7.79413539591803     24.47478891931000     35.41593397896582
  C   7.34228366801202     23.85079915239201     33.38639841607885
  H   6.32937395249732     24.25900989668768     33.40651055137625
  C   7.82623612415533     23.25412944632527     32.24691327625712
  H   7.20349273415122     23.17538006597154     31.35308478556091
  C   9.15427432354349     22.75928385001869     32.19452709394625
  C   9.68799518536589     22.20174200565249     31.01038796397615
  H   9.04054684159860     22.12096840129194     30.13314706657405
  C   11.01510113766363     21.83098183487241     30.92599444217768
  C   11.85088736495831     21.96800970808939     32.07818081328215
  C   13.69734105533956     20.50211208191184     32.42138134558487
  H   13.14611311506073     19.63358756870932     32.02040080095141
  H   13.67246259182953     20.46610579017407     33.52083253707811
  H   14.74314626000447     20.45024002513393     32.09213690481075
  C   10.86197632510794     20.24845812780699     29.01308542373843
  H   9.89894393138826     19.91071139986550     29.40664262744971
  C   11.56699602915304     21.26064286792506     29.68401845853432
  C   12.79348750537853     21.65318853052737     29.12971387336523
  H   13.37729178318816     22.44451076042273     29.60033607228173
  C   13.26013598180832     21.01987024945177     27.98301046390538
  H   14.21445250809531     21.30618872197708     27.53557387272604
  C   12.50375288240447     19.99247293576803     27.41845902044304
  C   13.00998899709096     19.18825946593663     26.30427125965970
  H   13.99005347227124     19.45270520458206     25.88058101907979
  C   12.90418225499512     17.33719991607639     24.89407419938540
  C   13.37585448277759     17.87387486173336     23.69107301569243
  H   13.29788634326811     18.94662191291592     23.50584825639830
  C   13.90255819742563     17.02815688802797     22.71857676840931
  H   14.25777043857134     17.44772982964846     21.77473693508737
  C   13.98480650954920     15.65526300352226     22.94773211683011
  H   14.40993788269294     14.99784682654580     22.18641369288153
  C   13.53583302452475     15.12534715740489     24.15866638793768
  H   13.62740615202860     14.05417008168441     24.35246761352397
  C   12.98282685542301     15.95873038424411     25.12568513699277
  H   12.65939041504296     15.55599671568173     26.08657235200598
