
 OpenBabel04152109413D

220247  0  0  0  0  0  0  0  0999 V2000
   11.3478   13.9362   10.9972 Fe  0  0  0  0  0  0  0  0  0  0  0  0
    7.5400    5.3094   12.5045 Fe  0  0  0  0  0  0  0  0  0  0  0  0
   13.6360    9.8643   13.3059 O   0  0  0  0  0  0  0  0  0  0  0  0
   11.6417    8.8513   15.6844 O   0  0  0  0  0  0  0  0  0  0  0  0
    9.6467   14.4437   10.1856 N   0  0  0  0  0  0  0  0  0  0  0  0
   11.5357   12.8519    9.4181 N   0  0  0  0  0  0  0  0  0  0  0  0
    9.0127    4.3301   11.6712 N   0  0  0  0  0  0  0  0  0  0  0  0
    7.2858    3.6259   13.4829 N   0  0  0  0  0  0  0  0  0  0  0  0
    8.5087   15.0460   10.7703 C   0  0  0  0  0  0  0  0  0  0  0  0
    7.2369   14.4996   10.5349 C   0  0  0  0  0  0  0  0  0  0  0  0
    6.1047   15.0962   11.0800 C   0  0  0  0  0  0  0  0  0  0  0  0
    6.2256   16.2418   11.8657 C   0  0  0  0  0  0  0  0  0  0  0  0
    7.4894   16.7745   12.1192 C   0  0  0  0  0  0  0  0  0  0  0  0
    8.6264   16.1744   11.5896 C   0  0  0  0  0  0  0  0  0  0  0  0
    9.5625   14.0197    8.9712 C   0  0  0  0  0  0  0  0  0  0  0  0
   10.5890   13.1182    8.5000 C   0  0  0  0  0  0  0  0  0  0  0  0
   10.5385   12.4307    7.2853 C   0  0  0  0  0  0  0  0  0  0  0  0
   11.4243   11.3825    7.0765 C   0  0  0  0  0  0  0  0  0  0  0  0
   12.3684   11.0619    8.0638 C   0  0  0  0  0  0  0  0  0  0  0  0
   12.4124   11.8777    9.2004 C   0  0  0  0  0  0  0  0  0  0  0  0
   14.8270   11.6054   14.4572 C   0  0  0  0  0  0  0  0  0  0  0  0
   15.5090   12.0277   15.5843 C   0  0  0  0  0  0  0  0  0  0  0  0
   15.6851   11.1875   16.7050 C   0  0  0  0  0  0  0  0  0  0  0  0
   16.3529   11.6399   17.8724 C   0  0  0  0  0  0  0  0  0  0  0  0
   16.4889   10.8139   18.9622 C   0  0  0  0  0  0  0  0  0  0  0  0
   15.9611    9.5036   18.9265 C   0  0  0  0  0  0  0  0  0  0  0  0
   15.3102    9.0354   17.8066 C   0  0  0  0  0  0  0  0  0  0  0  0
   15.1554    9.8610   16.6666 C   0  0  0  0  0  0  0  0  0  0  0  0
   14.4715    9.4183   15.4921 C   0  0  0  0  0  0  0  0  0  0  0  0
   14.3108   10.2747   14.4216 C   0  0  0  0  0  0  0  0  0  0  0  0
   14.4523    9.3210   12.2846 C   0  0  0  0  0  0  0  0  0  0  0  0
   13.9075    8.0487   15.4028 C   0  0  0  0  0  0  0  0  0  0  0  0
   14.7727    6.9348   15.1624 C   0  0  0  0  0  0  0  0  0  0  0  0
   16.1816    7.0785   15.0894 C   0  0  0  0  0  0  0  0  0  0  0  0
   16.9894    5.9854   14.8702 C   0  0  0  0  0  0  0  0  0  0  0  0
   16.4345    4.6971   14.7010 C   0  0  0  0  0  0  0  0  0  0  0  0
   15.0716    4.5273   14.7476 C   0  0  0  0  0  0  0  0  0  0  0  0
   14.2125    5.6333   14.9751 C   0  0  0  0  0  0  0  0  0  0  0  0
   12.8088    5.4833   15.0238 C   0  0  0  0  0  0  0  0  0  0  0  0
   11.9806    6.5527   15.2945 C   0  0  0  0  0  0  0  0  0  0  0  0
   12.5411    7.8522   15.4926 C   0  0  0  0  0  0  0  0  0  0  0  0
   11.8162    9.7657   16.7501 C   0  0  0  0  0  0  0  0  0  0  0  0
    9.8036    4.7383   10.6866 C   0  0  0  0  0  0  0  0  0  0  0  0
   10.6498    3.8675    9.9754 C   0  0  0  0  0  0  0  0  0  0  0  0
   10.6593    2.5203   10.3632 C   0  0  0  0  0  0  0  0  0  0  0  0
    9.8420    2.0966   11.4016 C   0  0  0  0  0  0  0  0  0  0  0  0
    9.0181    3.0287   12.0293 C   0  0  0  0  0  0  0  0  0  0  0  0
    8.1077    2.7117   13.1019 C   0  0  0  0  0  0  0  0  0  0  0  0
    6.5586    3.4012   14.6802 C   0  0  0  0  0  0  0  0  0  0  0  0
    7.2424    2.9543   15.8203 C   0  0  0  0  0  0  0  0  0  0  0  0
    6.5499    2.7232   17.0052 C   0  0  0  0  0  0  0  0  0  0  0  0
    5.1726    2.9309   17.0632 C   0  0  0  0  0  0  0  0  0  0  0  0
    4.4924    3.3838   15.9321 C   0  0  0  0  0  0  0  0  0  0  0  0
    5.1802    3.6324   14.7490 C   0  0  0  0  0  0  0  0  0  0  0  0
   11.2712    8.6056    7.7494 O   0  0  0  0  0  0  0  0  0  0  0  0
   12.0160    6.3617   10.0125 O   0  0  0  0  0  0  0  0  0  0  0  0
   12.3857   15.2671    9.9930 N   0  0  0  0  0  0  0  0  0  0  0  0
   13.1004   13.4736   11.7278 N   0  0  0  0  0  0  0  0  0  0  0  0
    8.5580    5.8555   14.0462 N   0  0  0  0  0  0  0  0  0  0  0  0
    6.0761    6.2267   13.4146 N   0  0  0  0  0  0  0  0  0  0  0  0
   12.0061   15.9811    8.8267 C   0  0  0  0  0  0  0  0  0  0  0  0
   10.9324   16.8780    8.8387 C   0  0  0  0  0  0  0  0  0  0  0  0
   10.6014   17.5796    7.6841 C   0  0  0  0  0  0  0  0  0  0  0  0
   11.3136   17.3715    6.5023 C   0  0  0  0  0  0  0  0  0  0  0  0
   12.3659   16.4576    6.4800 C   0  0  0  0  0  0  0  0  0  0  0  0
   12.7154   15.7662    7.6364 C   0  0  0  0  0  0  0  0  0  0  0  0
   13.6349   15.2512   10.3016 C   0  0  0  0  0  0  0  0  0  0  0  0
   14.0585   14.3397   11.3360 C   0  0  0  0  0  0  0  0  0  0  0  0
   15.3322   14.3320   11.9005 C   0  0  0  0  0  0  0  0  0  0  0  0
   15.6077   13.4245   12.9134 C   0  0  0  0  0  0  0  0  0  0  0  0
   14.6131   12.5321   13.3376 C   0  0  0  0  0  0  0  0  0  0  0  0
   13.3672   12.5973   12.6879 C   0  0  0  0  0  0  0  0  0  0  0  0
   13.2369    9.8754    8.0018 C   0  0  0  0  0  0  0  0  0  0  0  0
   14.6020    9.9671    8.1742 C   0  0  0  0  0  0  0  0  0  0  0  0
   15.4251    8.8188    8.1486 C   0  0  0  0  0  0  0  0  0  0  0  0
   16.8344    8.9092    8.2835 C   0  0  0  0  0  0  0  0  0  0  0  0
   17.6147    7.7781    8.2597 C   0  0  0  0  0  0  0  0  0  0  0  0
   17.0116    6.5096    8.1080 C   0  0  0  0  0  0  0  0  0  0  0  0
   15.6466    6.3893    7.9784 C   0  0  0  0  0  0  0  0  0  0  0  0
   14.8146    7.5378    7.9816 C   0  0  0  0  0  0  0  0  0  0  0  0
   13.3941    7.4444    7.8405 C   0  0  0  0  0  0  0  0  0  0  0  0
   12.6266    8.5949    7.8317 C   0  0  0  0  0  0  0  0  0  0  0  0
   10.6164    7.8894    6.7207 C   0  0  0  0  0  0  0  0  0  0  0  0
   12.7488    6.1115    7.7594 C   0  0  0  0  0  0  0  0  0  0  0  0
   12.8093    5.3391    6.5584 C   0  0  0  0  0  0  0  0  0  0  0  0
   13.4522    5.8119    5.3888 C   0  0  0  0  0  0  0  0  0  0  0  0
   13.4901    5.0388    4.2497 C   0  0  0  0  0  0  0  0  0  0  0  0
   12.8906    3.7597    4.2234 C   0  0  0  0  0  0  0  0  0  0  0  0
   12.2534    3.2757    5.3406 C   0  0  0  0  0  0  0  0  0  0  0  0
   12.1938    4.0503    6.5282 C   0  0  0  0  0  0  0  0  0  0  0  0
   11.5159    3.5895    7.6777 C   0  0  0  0  0  0  0  0  0  0  0  0
   11.4316    4.3518    8.8295 C   0  0  0  0  0  0  0  0  0  0  0  0
   12.0783    5.6243    8.8628 C   0  0  0  0  0  0  0  0  0  0  0  0
   13.0464    6.0832   10.9441 C   0  0  0  0  0  0  0  0  0  0  0  0
    9.8784    5.8503   14.1939 C   0  0  0  0  0  0  0  0  0  0  0  0
   10.5168    6.4066   15.3090 C   0  0  0  0  0  0  0  0  0  0  0  0
    9.7019    6.8730   16.3518 C   0  0  0  0  0  0  0  0  0  0  0  0
    8.3210    6.8373   16.2147 C   0  0  0  0  0  0  0  0  0  0  0  0
    7.7785    6.3660   15.0172 C   0  0  0  0  0  0  0  0  0  0  0  0
    6.4010    6.5471   14.6199 C   0  0  0  0  0  0  0  0  0  0  0  0
    4.8456    6.6988   12.9003 C   0  0  0  0  0  0  0  0  0  0  0  0
    4.0169    5.8785   12.1260 C   0  0  0  0  0  0  0  0  0  0  0  0
    2.7914    6.3547   11.6727 C   0  0  0  0  0  0  0  0  0  0  0  0
    2.3913    7.6607   11.9549 C   0  0  0  0  0  0  0  0  0  0  0  0
    3.2302    8.4952   12.6924 C   0  0  0  0  0  0  0  0  0  0  0  0
    4.4500    8.0199   13.1632 C   0  0  0  0  0  0  0  0  0  0  0  0
   11.1797   14.8602   12.7088 N   0  0  0  0  0  0  0  0  0  0  0  0
   10.3257   12.5427   11.8985 N   0  0  0  0  0  0  0  0  0  0  0  0
    7.8463    7.0186   11.6233 N   0  0  0  0  0  0  0  0  0  0  0  0
    6.6390    4.8592   10.8311 N   0  0  0  0  0  0  0  0  0  0  0  0
   11.9644   15.9425   13.1715 C   0  0  0  0  0  0  0  0  0  0  0  0
   12.0694   17.1283   12.4342 C   0  0  0  0  0  0  0  0  0  0  0  0
   12.8544   18.1740   12.9065 C   0  0  0  0  0  0  0  0  0  0  0  0
   13.5739   18.0364   14.0938 C   0  0  0  0  0  0  0  0  0  0  0  0
   13.4993   16.8445   14.8141 C   0  0  0  0  0  0  0  0  0  0  0  0
   12.6977   15.8027   14.3612 C   0  0  0  0  0  0  0  0  0  0  0  0
   10.5074   14.1764   13.5702 C   0  0  0  0  0  0  0  0  0  0  0  0
    9.9590   12.9085   13.1434 C   0  0  0  0  0  0  0  0  0  0  0  0
    9.1560   12.0911   13.9413 C   0  0  0  0  0  0  0  0  0  0  0  0
    8.6818   10.8967   13.4176 C   0  0  0  0  0  0  0  0  0  0  0  0
    9.0020   10.5463   12.0986 C   0  0  0  0  0  0  0  0  0  0  0  0
    9.8492   11.4067   11.3892 C   0  0  0  0  0  0  0  0  0  0  0  0
    8.4109    8.1155   12.1271 C   0  0  0  0  0  0  0  0  0  0  0  0
    8.4341    9.3430   11.4538 C   0  0  0  0  0  0  0  0  0  0  0  0
    7.8572    9.3907   10.1770 C   0  0  0  0  0  0  0  0  0  0  0  0
    7.2490    8.2557    9.6590 C   0  0  0  0  0  0  0  0  0  0  0  0
    7.2408    7.0851   10.4202 C   0  0  0  0  0  0  0  0  0  0  0  0
    6.6375    5.8410    9.9959 C   0  0  0  0  0  0  0  0  0  0  0  0
    6.3245    3.5655   10.3526 C   0  0  0  0  0  0  0  0  0  0  0  0
    6.8329    3.1465    9.1119 C   0  0  0  0  0  0  0  0  0  0  0  0
    6.5584    1.8675    8.6406 C   0  0  0  0  0  0  0  0  0  0  0  0
    5.7731    0.9957    9.3945 C   0  0  0  0  0  0  0  0  0  0  0  0
    5.2758    1.4055   10.6320 C   0  0  0  0  0  0  0  0  0  0  0  0
    5.5615    2.6759   11.1194 C   0  0  0  0  0  0  0  0  0  0  0  0
    7.1411   13.5878    9.9404 H   0  0  0  0  0  0  0  0  0  0  0  0
    5.1194   14.6641   10.8908 H   0  0  0  0  0  0  0  0  0  0  0  0
    5.3368   16.7173   12.2858 H   0  0  0  0  0  0  0  0  0  0  0  0
    7.5926   17.6725   12.7320 H   0  0  0  0  0  0  0  0  0  0  0  0
    9.6031   16.6045   11.7959 H   0  0  0  0  0  0  0  0  0  0  0  0
    8.7047   14.2595    8.3314 H   0  0  0  0  0  0  0  0  0  0  0  0
    9.7892   12.6953    6.5364 H   0  0  0  0  0  0  0  0  0  0  0  0
   11.3851   10.8046    6.1516 H   0  0  0  0  0  0  0  0  0  0  0  0
   13.1437   11.6821    9.9872 H   0  0  0  0  0  0  0  0  0  0  0  0
   15.8927   13.0501   15.6380 H   0  0  0  0  0  0  0  0  0  0  0  0
   16.7570   12.6549   17.8939 H   0  0  0  0  0  0  0  0  0  0  0  0
   17.0025   11.1660   19.8590 H   0  0  0  0  0  0  0  0  0  0  0  0
   16.0745    8.8556   19.7984 H   0  0  0  0  0  0  0  0  0  0  0  0
   14.9117    8.0191   17.7907 H   0  0  0  0  0  0  0  0  0  0  0  0
   15.2410   10.0298   11.9764 H   0  0  0  0  0  0  0  0  0  0  0  0
   14.9322    8.3851   12.6150 H   0  0  0  0  0  0  0  0  0  0  0  0
   13.8032    9.1129   11.4229 H   0  0  0  0  0  0  0  0  0  0  0  0
   16.6277    8.0649   15.2266 H   0  0  0  0  0  0  0  0  0  0  0  0
   18.0738    6.1126   14.8370 H   0  0  0  0  0  0  0  0  0  0  0  0
   17.0926    3.8408   14.5404 H   0  0  0  0  0  0  0  0  0  0  0  0
   14.6328    3.5341   14.6232 H   0  0  0  0  0  0  0  0  0  0  0  0
   12.3815    4.4856   14.8892 H   0  0  0  0  0  0  0  0  0  0  0  0
   12.3652   10.6650   16.4335 H   0  0  0  0  0  0  0  0  0  0  0  0
   12.3567    9.3090   17.5936 H   0  0  0  0  0  0  0  0  0  0  0  0
   10.8109   10.0584   17.0874 H   0  0  0  0  0  0  0  0  0  0  0  0
    9.7738    5.7968   10.4286 H   0  0  0  0  0  0  0  0  0  0  0  0
   11.3176    1.8109    9.8567 H   0  0  0  0  0  0  0  0  0  0  0  0
    9.8313    1.0531   11.7215 H   0  0  0  0  0  0  0  0  0  0  0  0
    8.1364    1.7242   13.5790 H   0  0  0  0  0  0  0  0  0  0  0  0
    8.3252    2.8113   15.7814 H   0  0  0  0  0  0  0  0  0  0  0  0
    7.0901    2.3761   17.8888 H   0  0  0  0  0  0  0  0  0  0  0  0
    4.6273    2.7391   17.9898 H   0  0  0  0  0  0  0  0  0  0  0  0
    3.4122    3.5407   15.9686 H   0  0  0  0  0  0  0  0  0  0  0  0
    4.6342    3.9903   13.8774 H   0  0  0  0  0  0  0  0  0  0  0  0
   10.3615   17.0466    9.7509 H   0  0  0  0  0  0  0  0  0  0  0  0
    9.7810   18.3001    7.7096 H   0  0  0  0  0  0  0  0  0  0  0  0
   11.0470   17.9239    5.5987 H   0  0  0  0  0  0  0  0  0  0  0  0
   12.9228   16.2836    5.5565 H   0  0  0  0  0  0  0  0  0  0  0  0
   13.5292   15.0370    7.6147 H   0  0  0  0  0  0  0  0  0  0  0  0
   14.3651   15.8925    9.7926 H   0  0  0  0  0  0  0  0  0  0  0  0
   16.0889   15.0381   11.5538 H   0  0  0  0  0  0  0  0  0  0  0  0
   16.5989   13.3947   13.3713 H   0  0  0  0  0  0  0  0  0  0  0  0
   12.5699   11.9128   12.9761 H   0  0  0  0  0  0  0  0  0  0  0  0
   15.0704   10.9488    8.2883 H   0  0  0  0  0  0  0  0  0  0  0  0
   17.2922    9.8954    8.3951 H   0  0  0  0  0  0  0  0  0  0  0  0
   18.7002    7.8541    8.3503 H   0  0  0  0  0  0  0  0  0  0  0  0
   17.6377    5.6150    8.0836 H   0  0  0  0  0  0  0  0  0  0  0  0
   15.1974    5.4025    7.8557 H   0  0  0  0  0  0  0  0  0  0  0  0
   11.2435    7.8084    5.8192 H   0  0  0  0  0  0  0  0  0  0  0  0
   10.3364    6.8746    7.0412 H   0  0  0  0  0  0  0  0  0  0  0  0
    9.7045    8.4519    6.4715 H   0  0  0  0  0  0  0  0  0  0  0  0
   13.9271    6.7947    5.3977 H   0  0  0  0  0  0  0  0  0  0  0  0
   13.9917    5.4151    3.3554 H   0  0  0  0  0  0  0  0  0  0  0  0
   12.9339    3.1607    3.3116 H   0  0  0  0  0  0  0  0  0  0  0  0
   11.7839    2.2892    5.3259 H   0  0  0  0  0  0  0  0  0  0  0  0
   11.0127    2.6201    7.6280 H   0  0  0  0  0  0  0  0  0  0  0  0
   12.8450    6.6797   11.8442 H   0  0  0  0  0  0  0  0  0  0  0  0
   14.0344    6.3566   10.5382 H   0  0  0  0  0  0  0  0  0  0  0  0
   13.0635    5.0140   11.2190 H   0  0  0  0  0  0  0  0  0  0  0  0
   10.4694    5.4547   13.3655 H   0  0  0  0  0  0  0  0  0  0  0  0
   10.1549    7.2677   17.2624 H   0  0  0  0  0  0  0  0  0  0  0  0
    7.6648    7.2046   17.0064 H   0  0  0  0  0  0  0  0  0  0  0  0
    5.6885    7.0214   15.3057 H   0  0  0  0  0  0  0  0  0  0  0  0
    4.3105    4.8567   11.8975 H   0  0  0  0  0  0  0  0  0  0  0  0
    2.1385    5.6942   11.0981 H   0  0  0  0  0  0  0  0  0  0  0  0
    1.4276    8.0280   11.5960 H   0  0  0  0  0  0  0  0  0  0  0  0
    2.9299    9.5241   12.9034 H   0  0  0  0  0  0  0  0  0  0  0  0
    5.1159    8.6812   13.7233 H   0  0  0  0  0  0  0  0  0  0  0  0
   11.5305   17.2454   11.4961 H   0  0  0  0  0  0  0  0  0  0  0  0
   12.9070   19.1059   12.3397 H   0  0  0  0  0  0  0  0  0  0  0  0
   14.1976   18.8575   14.4538 H   0  0  0  0  0  0  0  0  0  0  0  0
   14.0738   16.7249   15.7353 H   0  0  0  0  0  0  0  0  0  0  0  0
   12.6717   14.8576   14.9092 H   0  0  0  0  0  0  0  0  0  0  0  0
   10.3790   14.5129   14.6057 H   0  0  0  0  0  0  0  0  0  0  0  0
    8.8923   12.4058   14.9524 H   0  0  0  0  0  0  0  0  0  0  0  0
    8.0288   10.2577   14.0165 H   0  0  0  0  0  0  0  0  0  0  0  0
   10.1664   11.1422   10.3791 H   0  0  0  0  0  0  0  0  0  0  0  0
    8.8916    8.0246   13.1024 H   0  0  0  0  0  0  0  0  0  0  0  0
    7.8469   10.3242    9.6099 H   0  0  0  0  0  0  0  0  0  0  0  0
    6.7606    8.2744    8.6833 H   0  0  0  0  0  0  0  0  0  0  0  0
    6.2286    5.7415    8.9835 H   0  0  0  0  0  0  0  0  0  0  0  0
    7.4802    3.8120    8.5352 H   0  0  0  0  0  0  0  0  0  0  0  0
    6.9629    1.5461    7.6783 H   0  0  0  0  0  0  0  0  0  0  0  0
    5.5530   -0.0067    9.0209 H   0  0  0  0  0  0  0  0  0  0  0  0
    4.6588    0.7269   11.2249 H   0  0  0  0  0  0  0  0  0  0  0  0
    5.1764    2.9740   12.0925 H   0  0  0  0  0  0  0  0  0  0  0  0
  1 58  1  0  0  0  0
  1108  1  0  0  0  0
  1107  1  0  0  0  0
  2 60  1  0  0  0  0
  2  8  1  0  0  0  0
  2 59  1  0  0  0  0
  3 30  1  0  0  0  0
  4 42  1  0  0  0  0
  5  9  1  0  0  0  0
  5  1  1  0  0  0  0
  6  1  1  0  0  0  0
  7 47  1  0  0  0  0
  7  2  1  0  0  0  0
  8 49  1  0  0  0  0
  9 14  1  0  0  0  0
 10  9  2  0  0  0  0
 10 11  1  0  0  0  0
 11 12  2  0  0  0  0
 12 13  1  0  0  0  0
 12137  1  0  0  0  0
 13138  1  0  0  0  0
 14139  1  0  0  0  0
 14 13  2  0  0  0  0
 15  5  1  0  0  0  0
 16 15  2  0  0  0  0
 16  6  1  0  0  0  0
 17 16  1  0  0  0  0
 18 17  2  0  0  0  0
 18 19  1  0  0  0  0
 19 20  2  0  0  0  0
 20  6  1  0  0  0  0
 20143  1  0  0  0  0
 21 22  1  0  0  0  0
 22144  1  0  0  0  0
 22 23  2  0  0  0  0
 23 24  1  0  0  0  0
 24145  1  0  0  0  0
 24 25  2  0  0  0  0
 25146  1  0  0  0  0
 26 25  1  0  0  0  0
 26147  1  0  0  0  0
 27 26  2  0  0  0  0
 28 23  1  0  0  0  0
 28 27  1  0  0  0  0
 29 28  2  0  0  0  0
 30 21  2  0  0  0  0
 30 29  1  0  0  0  0
 31150  1  0  0  0  0
 31  3  1  0  0  0  0
 32 29  1  0  0  0  0
 32 41  1  0  0  0  0
 33 32  2  0  0  0  0
 34 33  1  0  0  0  0
 34152  1  0  0  0  0
 35 34  2  0  0  0  0
 36 37  2  0  0  0  0
 36 35  1  0  0  0  0
 37 38  1  0  0  0  0
 38 39  2  0  0  0  0
 38 33  1  0  0  0  0
 39 40  1  0  0  0  0
 40 96  1  0  0  0  0
 40 41  2  0  0  0  0
 41  4  1  0  0  0  0
 42159  1  0  0  0  0
 42158  1  0  0  0  0
 43  7  1  0  0  0  0
 44 45  1  0  0  0  0
 44 43  2  0  0  0  0
 45 46  2  0  0  0  0
 46162  1  0  0  0  0
 46 47  1  0  0  0  0
 47 48  2  0  0  0  0
 48  8  1  0  0  0  0
 48163  1  0  0  0  0
 49 54  2  0  0  0  0
 49 50  1  0  0  0  0
 50 51  2  0  0  0  0
 51 52  1  0  0  0  0
 51165  1  0  0  0  0
 52166  1  0  0  0  0
 53167  1  0  0  0  0
 53 52  2  0  0  0  0
 54 53  1  0  0  0  0
 55 82  1  0  0  0  0
 56 94  1  0  0  0  0
 57 67  1  0  0  0  0
 57  1  1  0  0  0  0
 58 72  1  0  0  0  0
 59 95  1  0  0  0  0
 59 99  1  0  0  0  0
 60100  1  0  0  0  0
 61 62  1  0  0  0  0
 61 57  1  0  0  0  0
 62169  1  0  0  0  0
 63170  1  0  0  0  0
 63 62  2  0  0  0  0
 64 63  1  0  0  0  0
 65 64  2  0  0  0  0
 65 66  1  0  0  0  0
 66 61  2  0  0  0  0
 67 68  2  0  0  0  0
 68 58  1  0  0  0  0
 68 69  1  0  0  0  0
 69 70  2  0  0  0  0
 70 71  1  0  0  0  0
 70176  1  0  0  0  0
 71 21  1  0  0  0  0
 72177  1  0  0  0  0
 72 71  2  0  0  0  0
 73 19  1  0  0  0  0
 73 74  2  0  0  0  0
 74178  1  0  0  0  0
 75 74  1  0  0  0  0
 75 76  2  0  0  0  0
 76179  1  0  0  0  0
 77 76  1  0  0  0  0
 77180  1  0  0  0  0
 78 77  2  0  0  0  0
 79 80  2  0  0  0  0
 79 78  1  0  0  0  0
 80 75  1  0  0  0  0
 81 80  1  0  0  0  0
 82 81  2  0  0  0  0
 82 73  1  0  0  0  0
 83184  1  0  0  0  0
 83 55  1  0  0  0  0
 84 81  1  0  0  0  0
 84 93  2  0  0  0  0
 85 84  1  0  0  0  0
 86186  1  0  0  0  0
 86 85  2  0  0  0  0
 87 86  1  0  0  0  0
 88 87  2  0  0  0  0
 88 89  1  0  0  0  0
 89 90  2  0  0  0  0
 90 85  1  0  0  0  0
 90 91  1  0  0  0  0
 91 92  2  0  0  0  0
 92 93  1  0  0  0  0
 92 44  1  0  0  0  0
 93 56  1  0  0  0  0
 94193  1  0  0  0  0
 94191  1  0  0  0  0
 95 96  2  0  0  0  0
 96 97  1  0  0  0  0
 97195  1  0  0  0  0
 98 97  2  0  0  0  0
 98196  1  0  0  0  0
 99 98  1  0  0  0  0
100 99  2  0  0  0  0
100197  1  0  0  0  0
101106  1  0  0  0  0
101 60  1  0  0  0  0
102101  2  0  0  0  0
103104  2  0  0  0  0
103102  1  0  0  0  0
104105  1  0  0  0  0
105201  1  0  0  0  0
105106  2  0  0  0  0
106202  1  0  0  0  0
107111  1  0  0  0  0
107117  1  0  0  0  0
108118  1  0  0  0  0
109123  1  0  0  0  0
109  2  1  0  0  0  0
110  2  1  0  0  0  0
111116  2  0  0  0  0
112113  2  0  0  0  0
112111  1  0  0  0  0
113114  1  0  0  0  0
114205  1  0  0  0  0
114115  2  0  0  0  0
115206  1  0  0  0  0
116115  1  0  0  0  0
116207  1  0  0  0  0
117208  1  0  0  0  0
118117  2  0  0  0  0
118119  1  0  0  0  0
119209  1  0  0  0  0
120119  2  0  0  0  0
120210  1  0  0  0  0
121120  1  0  0  0  0
122108  1  0  0  0  0
122121  2  0  0  0  0
123212  1  0  0  0  0
124121  1  0  0  0  0
124123  2  0  0  0  0
125124  1  0  0  0  0
126125  2  0  0  0  0
126127  1  0  0  0  0
127109  1  0  0  0  0
128127  2  0  0  0  0
128110  1  0  0  0  0
129110  1  0  0  0  0
129134  2  0  0  0  0
130129  1  0  0  0  0
131130  2  0  0  0  0
131132  1  0  0  0  0
132133  2  0  0  0  0
133134  1  0  0  0  0
133219  1  0  0  0  0
134220  1  0  0  0  0
135 10  1  0  0  0  0
136 11  1  0  0  0  0
140 15  1  0  0  0  0
141 17  1  0  0  0  0
142 18  1  0  0  0  0
148 27  1  0  0  0  0
149 31  1  0  0  0  0
151 31  1  0  0  0  0
153 35  1  0  0  0  0
154 36  1  0  0  0  0
155 37  1  0  0  0  0
156 39  1  0  0  0  0
157 42  1  0  0  0  0
160 43  1  0  0  0  0
161 45  1  0  0  0  0
164 50  1  0  0  0  0
168 54  1  0  0  0  0
171 64  1  0  0  0  0
172 65  1  0  0  0  0
173 66  1  0  0  0  0
174 67  1  0  0  0  0
175 69  1  0  0  0  0
181 78  1  0  0  0  0
182 79  1  0  0  0  0
183 83  1  0  0  0  0
185 83  1  0  0  0  0
187 87  1  0  0  0  0
188 88  1  0  0  0  0
189 89  1  0  0  0  0
190 91  1  0  0  0  0
192 94  1  0  0  0  0
194 95  1  0  0  0  0
198102  1  0  0  0  0
199103  1  0  0  0  0
200104  1  0  0  0  0
203112  1  0  0  0  0
204113  1  0  0  0  0
211122  1  0  0  0  0
213125  1  0  0  0  0
214126  1  0  0  0  0
215128  1  0  0  0  0
216130  1  0  0  0  0
217131  1  0  0  0  0
218132  1  0  0  0  0
M  END
