
 OpenBabel04152109403D

218246  0  0  0  0  0  0  0  0999 V2000
   12.3368   14.7183    9.5141 Fe  0  0  0  0  0  0  0  0  0  0  0  0
    7.3525    3.9670   12.8074 Fe  0  0  0  0  0  0  0  0  0  0  0  0
   12.0804   10.3437   12.3585 O   0  0  0  0  0  0  0  0  0  0  0  0
   10.8564    7.5431   14.3898 O   0  0  0  0  0  0  0  0  0  0  0  0
   11.1667   16.2461    9.7386 N   0  0  0  0  0  0  0  0  0  0  0  0
   11.8706   14.3495   11.3628 N   0  0  0  0  0  0  0  0  0  0  0  0
    9.2787    3.9348   13.0839 N   0  0  0  0  0  0  0  0  0  0  0  0
    7.6067    2.0747   12.4152 N   0  0  0  0  0  0  0  0  0  0  0  0
   10.9317   17.3250    8.8462 C   0  0  0  0  0  0  0  0  0  0  0  0
   10.3222   17.0954    7.6089 C   0  0  0  0  0  0  0  0  0  0  0  0
   10.1189   18.1577    6.7350 C   0  0  0  0  0  0  0  0  0  0  0  0
   10.5261   19.4469    7.0834 C   0  0  0  0  0  0  0  0  0  0  0  0
   11.1164   19.6744    8.3252 C   0  0  0  0  0  0  0  0  0  0  0  0
   11.3161   18.6187    9.2132 C   0  0  0  0  0  0  0  0  0  0  0  0
   10.6161   16.2809   10.8966 C   0  0  0  0  0  0  0  0  0  0  0  0
   10.9402   15.2141   11.8168 C   0  0  0  0  0  0  0  0  0  0  0  0
   10.3438   15.0602   13.0683 C   0  0  0  0  0  0  0  0  0  0  0  0
   10.6930   13.9673   13.8467 C   0  0  0  0  0  0  0  0  0  0  0  0
   11.6606   13.0560   13.3873 C   0  0  0  0  0  0  0  0  0  0  0  0
   12.2342   13.3207   12.1290 C   0  0  0  0  0  0  0  0  0  0  0  0
   12.0839   11.9149   14.2179 C   0  0  0  0  0  0  0  0  0  0  0  0
   12.2991   12.1239   15.5697 C   0  0  0  0  0  0  0  0  0  0  0  0
   12.7672   11.1034   16.4192 C   0  0  0  0  0  0  0  0  0  0  0  0
   13.0309   11.3470   17.7923 C   0  0  0  0  0  0  0  0  0  0  0  0
   13.5130   10.3452   18.5986 C   0  0  0  0  0  0  0  0  0  0  0  0
   13.7434    9.0599   18.0573 C   0  0  0  0  0  0  0  0  0  0  0  0
   13.4946    8.7940   16.7289 C   0  0  0  0  0  0  0  0  0  0  0  0
   13.0028    9.8071   15.8687 C   0  0  0  0  0  0  0  0  0  0  0  0
   12.7460    9.5762   14.4818 C   0  0  0  0  0  0  0  0  0  0  0  0
   12.2991   10.6055   13.6785 C   0  0  0  0  0  0  0  0  0  0  0  0
   13.0529    8.2325   13.9265 C   0  0  0  0  0  0  0  0  0  0  0  0
   14.3989    7.9437   13.5508 C   0  0  0  0  0  0  0  0  0  0  0  0
   15.4065    8.9390   13.5361 C   0  0  0  0  0  0  0  0  0  0  0  0
   16.7217    8.6032   13.3034 C   0  0  0  0  0  0  0  0  0  0  0  0
   17.0947    7.2599   13.0732 C   0  0  0  0  0  0  0  0  0  0  0  0
   16.1328    6.2791   13.0421 C   0  0  0  0  0  0  0  0  0  0  0  0
   14.7695    6.5954   13.2723 C   0  0  0  0  0  0  0  0  0  0  0  0
   13.7722    5.5994   13.2869 C   0  0  0  0  0  0  0  0  0  0  0  0
   12.4542    5.8730   13.6208 C   0  0  0  0  0  0  0  0  0  0  0  0
   12.1120    7.2219   13.9690 C   0  0  0  0  0  0  0  0  0  0  0  0
   10.1269    4.9470   13.2484 C   0  0  0  0  0  0  0  0  0  0  0  0
   11.4753    4.7677   13.6142 C   0  0  0  0  0  0  0  0  0  0  0  0
   11.8675    3.4496   13.9170 C   0  0  0  0  0  0  0  0  0  0  0  0
   10.9924    2.3936   13.7182 C   0  0  0  0  0  0  0  0  0  0  0  0
    9.7070    2.6675   13.2529 C   0  0  0  0  0  0  0  0  0  0  0  0
    8.7691    1.6689   12.7929 C   0  0  0  0  0  0  0  0  0  0  0  0
    6.8012    1.2062   11.6393 C   0  0  0  0  0  0  0  0  0  0  0  0
    7.3753    0.5525   10.5387 C   0  0  0  0  0  0  0  0  0  0  0  0
    6.6013   -0.2838    9.7400 C   0  0  0  0  0  0  0  0  0  0  0  0
    5.2512   -0.4773   10.0293 C   0  0  0  0  0  0  0  0  0  0  0  0
    4.6797    0.1683   11.1262 C   0  0  0  0  0  0  0  0  0  0  0  0
    5.4441    1.0144   11.9243 C   0  0  0  0  0  0  0  0  0  0  0  0
   11.9525    9.6445    8.1925 O   0  0  0  0  0  0  0  0  0  0  0  0
   10.4470    6.6502   10.0357 O   0  0  0  0  0  0  0  0  0  0  0  0
   13.9634   15.7162    9.9601 N   0  0  0  0  0  0  0  0  0  0  0  0
   13.5790   13.2069    9.3653 N   0  0  0  0  0  0  0  0  0  0  0  0
    7.4313    4.3120   10.8976 N   0  0  0  0  0  0  0  0  0  0  0  0
    5.3980    4.0171   12.5015 N   0  0  0  0  0  0  0  0  0  0  0  0
   14.1330   17.0309   10.4649 C   0  0  0  0  0  0  0  0  0  0  0  0
   13.5358   17.3775   11.6822 C   0  0  0  0  0  0  0  0  0  0  0  0
   13.7115   18.6561   12.2031 C   0  0  0  0  0  0  0  0  0  0  0  0
   14.4711   19.6018   11.5120 C   0  0  0  0  0  0  0  0  0  0  0  0
   15.0891   19.2469   10.3139 C   0  0  0  0  0  0  0  0  0  0  0  0
   14.9323   17.9644    9.7946 C   0  0  0  0  0  0  0  0  0  0  0  0
   15.0072   15.0567    9.6050 C   0  0  0  0  0  0  0  0  0  0  0  0
   14.8417   13.6665    9.2541 C   0  0  0  0  0  0  0  0  0  0  0  0
   15.9015   12.8178    8.9424 C   0  0  0  0  0  0  0  0  0  0  0  0
   15.6577   11.4576    8.8409 C   0  0  0  0  0  0  0  0  0  0  0  0
   14.3677   10.9487    9.0743 C   0  0  0  0  0  0  0  0  0  0  0  0
   13.3477   11.8981    9.2748 C   0  0  0  0  0  0  0  0  0  0  0  0
   14.1411    9.4936    9.1369 C   0  0  0  0  0  0  0  0  0  0  0  0
   15.1671    8.6735    9.5785 C   0  0  0  0  0  0  0  0  0  0  0  0
   15.0841    7.2654    9.5782 C   0  0  0  0  0  0  0  0  0  0  0  0
   16.1968    6.4541    9.9145 C   0  0  0  0  0  0  0  0  0  0  0  0
   16.1069    5.0835    9.8571 C   0  0  0  0  0  0  0  0  0  0  0  0
   14.8866    4.4758    9.4897 C   0  0  0  0  0  0  0  0  0  0  0  0
   13.7925    5.2394    9.1441 C   0  0  0  0  0  0  0  0  0  0  0  0
   13.8698    6.6521    9.1564 C   0  0  0  0  0  0  0  0  0  0  0  0
   12.8014    7.4847    8.7002 C   0  0  0  0  0  0  0  0  0  0  0  0
   12.9350    8.8646    8.6930 C   0  0  0  0  0  0  0  0  0  0  0  0
   11.6582    6.8421    7.9971 C   0  0  0  0  0  0  0  0  0  0  0  0
   11.7848    6.5502    6.6019 C   0  0  0  0  0  0  0  0  0  0  0  0
   12.8944    6.9735    5.8323 C   0  0  0  0  0  0  0  0  0  0  0  0
   12.9852    6.6473    4.4967 C   0  0  0  0  0  0  0  0  0  0  0  0
   11.9779    5.8848    3.8635 C   0  0  0  0  0  0  0  0  0  0  0  0
   10.8895    5.4580    4.5856 C   0  0  0  0  0  0  0  0  0  0  0  0
   10.7696    5.7770    5.9632 C   0  0  0  0  0  0  0  0  0  0  0  0
    9.6840    5.3181    6.7357 C   0  0  0  0  0  0  0  0  0  0  0  0
    9.5550    5.5863    8.0885 C   0  0  0  0  0  0  0  0  0  0  0  0
   10.5696    6.3772    8.7171 C   0  0  0  0  0  0  0  0  0  0  0  0
    8.4876    4.6607   10.1707 C   0  0  0  0  0  0  0  0  0  0  0  0
    8.3921    5.0710    8.8281 C   0  0  0  0  0  0  0  0  0  0  0  0
    7.1278    4.9709    8.2250 C   0  0  0  0  0  0  0  0  0  0  0  0
    6.0354    4.5498    8.9681 C   0  0  0  0  0  0  0  0  0  0  0  0
    6.2128    4.2749   10.3228 C   0  0  0  0  0  0  0  0  0  0  0  0
    5.1196    4.1056   11.2475 C   0  0  0  0  0  0  0  0  0  0  0  0
    4.3376    4.2129   13.4232 C   0  0  0  0  0  0  0  0  0  0  0  0
    4.1618    3.3810   14.5356 C   0  0  0  0  0  0  0  0  0  0  0  0
    3.1174    3.6173   15.4248 C   0  0  0  0  0  0  0  0  0  0  0  0
    2.2529    4.6958   15.2317 C   0  0  0  0  0  0  0  0  0  0  0  0
    2.4332    5.5364   14.1337 C   0  0  0  0  0  0  0  0  0  0  0  0
    3.4684    5.2990   13.2343 C   0  0  0  0  0  0  0  0  0  0  0  0
   12.6295   14.9693    7.5765 N   0  0  0  0  0  0  0  0  0  0  0  0
   10.8639   13.6187    8.8864 N   0  0  0  0  0  0  0  0  0  0  0  0
    7.1532    5.8460   13.2164 N   0  0  0  0  0  0  0  0  0  0  0  0
    7.1749    3.7951   14.7575 N   0  0  0  0  0  0  0  0  0  0  0  0
   13.6909   15.6201    6.8888 C   0  0  0  0  0  0  0  0  0  0  0  0
   14.5914   14.8510    6.1401 C   0  0  0  0  0  0  0  0  0  0  0  0
   15.6256   15.4752    5.4472 C   0  0  0  0  0  0  0  0  0  0  0  0
   15.7522   16.8633    5.4825 C   0  0  0  0  0  0  0  0  0  0  0  0
   14.8391   17.6238    6.2138 C   0  0  0  0  0  0  0  0  0  0  0  0
   13.8144   17.0103    6.9295 C   0  0  0  0  0  0  0  0  0  0  0  0
   11.8209   14.2781    6.8575 C   0  0  0  0  0  0  0  0  0  0  0  0
   10.7932   13.5328    7.5434 C   0  0  0  0  0  0  0  0  0  0  0  0
    9.8142   12.7738    6.9034 C   0  0  0  0  0  0  0  0  0  0  0  0
    8.9270   12.0340    7.6709 C   0  0  0  0  0  0  0  0  0  0  0  0
    9.0452   12.0567    9.0674 C   0  0  0  0  0  0  0  0  0  0  0  0
   10.0145   12.9061    9.6137 C   0  0  0  0  0  0  0  0  0  0  0  0
    7.3070    6.8732   12.3968 C   0  0  0  0  0  0  0  0  0  0  0  0
    6.9225    8.1797   12.7201 C   0  0  0  0  0  0  0  0  0  0  0  0
    6.3098    8.3765   13.9660 C   0  0  0  0  0  0  0  0  0  0  0  0
    6.1866    7.3063   14.8445 C   0  0  0  0  0  0  0  0  0  0  0  0
    6.6464    6.0503   14.4486 C   0  0  0  0  0  0  0  0  0  0  0  0
    6.7415    4.8826   15.2980 C   0  0  0  0  0  0  0  0  0  0  0  0
    7.5764    2.7356   15.6071 C   0  0  0  0  0  0  0  0  0  0  0  0
    8.4276    3.0128   16.6873 C   0  0  0  0  0  0  0  0  0  0  0  0
    8.8681    1.9842   17.5143 C   0  0  0  0  0  0  0  0  0  0  0  0
    8.4626    0.6714   17.2763 C   0  0  0  0  0  0  0  0  0  0  0  0
    7.6082    0.3947   16.2085 C   0  0  0  0  0  0  0  0  0  0  0  0
    7.1733    1.4155   15.3688 C   0  0  0  0  0  0  0  0  0  0  0  0
    7.2632    9.2464   11.7659 C   0  0  0  0  0  0  0  0  0  0  0  0
    7.3894    8.9588   10.3977 C   0  0  0  0  0  0  0  0  0  0  0  0
    7.9069    9.8931    9.5167 C   0  0  0  0  0  0  0  0  0  0  0  0
    8.3064   11.1583    9.9672 C   0  0  0  0  0  0  0  0  0  0  0  0
    8.0922   11.4792   11.3176 C   0  0  0  0  0  0  0  0  0  0  0  0
    7.5834   10.5392   12.2029 C   0  0  0  0  0  0  0  0  0  0  0  0
    9.9676   16.0978    7.3506 H   0  0  0  0  0  0  0  0  0  0  0  0
    9.6266   17.9818    5.7759 H   0  0  0  0  0  0  0  0  0  0  0  0
   10.3640   20.2765    6.3913 H   0  0  0  0  0  0  0  0  0  0  0  0
   11.4191   20.6837    8.6132 H   0  0  0  0  0  0  0  0  0  0  0  0
   11.7962   18.7895   10.1786 H   0  0  0  0  0  0  0  0  0  0  0  0
    9.9249   17.0807   11.1887 H   0  0  0  0  0  0  0  0  0  0  0  0
    9.5989   15.7822   13.4088 H   0  0  0  0  0  0  0  0  0  0  0  0
   10.2118   13.8061   14.8136 H   0  0  0  0  0  0  0  0  0  0  0  0
   13.0166   12.6690   11.7383 H   0  0  0  0  0  0  0  0  0  0  0  0
   12.1553   13.1221   15.9910 H   0  0  0  0  0  0  0  0  0  0  0  0
   12.8494   12.3466   18.1948 H   0  0  0  0  0  0  0  0  0  0  0  0
   13.7253   10.5388   19.6522 H   0  0  0  0  0  0  0  0  0  0  0  0
   14.1330    8.2708   18.7045 H   0  0  0  0  0  0  0  0  0  0  0  0
   13.6893    7.7984   16.3274 H   0  0  0  0  0  0  0  0  0  0  0  0
   15.1319    9.9730   13.7491 H   0  0  0  0  0  0  0  0  0  0  0  0
   17.4918    9.3785   13.3195 H   0  0  0  0  0  0  0  0  0  0  0  0
   18.1463    7.0060   12.9201 H   0  0  0  0  0  0  0  0  0  0  0  0
   16.4055    5.2395   12.8494 H   0  0  0  0  0  0  0  0  0  0  0  0
   14.0636    4.5846   13.0074 H   0  0  0  0  0  0  0  0  0  0  0  0
    9.7393    5.9468   13.0496 H   0  0  0  0  0  0  0  0  0  0  0  0
   12.8720    3.2545   14.2962 H   0  0  0  0  0  0  0  0  0  0  0  0
   11.2969    1.3635   13.9135 H   0  0  0  0  0  0  0  0  0  0  0  0
    9.0823    0.6224   12.6951 H   0  0  0  0  0  0  0  0  0  0  0  0
    8.4269    0.7225   10.2953 H   0  0  0  0  0  0  0  0  0  0  0  0
    7.0573   -0.7894    8.8857 H   0  0  0  0  0  0  0  0  0  0  0  0
    4.6445   -1.1362    9.4035 H   0  0  0  0  0  0  0  0  0  0  0  0
    3.6269    0.0056   11.3682 H   0  0  0  0  0  0  0  0  0  0  0  0
    4.9856    1.5034   12.7820 H   0  0  0  0  0  0  0  0  0  0  0  0
   12.9831   16.6288   12.2480 H   0  0  0  0  0  0  0  0  0  0  0  0
   13.2630   18.9150   13.1650 H   0  0  0  0  0  0  0  0  0  0  0  0
   14.5976   20.6080   11.9183 H   0  0  0  0  0  0  0  0  0  0  0  0
   15.7069   19.9726    9.7797 H   0  0  0  0  0  0  0  0  0  0  0  0
   15.4148   17.6941    8.8550 H   0  0  0  0  0  0  0  0  0  0  0  0
   16.0145   15.4861    9.6617 H   0  0  0  0  0  0  0  0  0  0  0  0
   16.9022   13.2253    8.7880 H   0  0  0  0  0  0  0  0  0  0  0  0
   16.4736   10.7808    8.5806 H   0  0  0  0  0  0  0  0  0  0  0  0
   12.3162   11.5645    9.3810 H   0  0  0  0  0  0  0  0  0  0  0  0
   16.0898    9.1237    9.9496 H   0  0  0  0  0  0  0  0  0  0  0  0
   17.1305    6.9380   10.2065 H   0  0  0  0  0  0  0  0  0  0  0  0
   16.9757    4.4631   10.0891 H   0  0  0  0  0  0  0  0  0  0  0  0
   14.8200    3.3857    9.4523 H   0  0  0  0  0  0  0  0  0  0  0  0
   12.8680    4.7584    8.8217 H   0  0  0  0  0  0  0  0  0  0  0  0
   13.6868    7.5517    6.3097 H   0  0  0  0  0  0  0  0  0  0  0  0
   13.8511    6.9756    3.9170 H   0  0  0  0  0  0  0  0  0  0  0  0
   12.0717    5.6311    2.8055 H   0  0  0  0  0  0  0  0  0  0  0  0
   10.1052    4.8637    4.1099 H   0  0  0  0  0  0  0  0  0  0  0  0
    8.9370    4.6923    6.2418 H   0  0  0  0  0  0  0  0  0  0  0  0
    9.4534    4.6596   10.6723 H   0  0  0  0  0  0  0  0  0  0  0  0
    6.9929    5.2616    7.1814 H   0  0  0  0  0  0  0  0  0  0  0  0
    5.0409    4.4852    8.5231 H   0  0  0  0  0  0  0  0  0  0  0  0
    4.0863    4.1398   10.8824 H   0  0  0  0  0  0  0  0  0  0  0  0
    4.8277    2.5360   14.7035 H   0  0  0  0  0  0  0  0  0  0  0  0
    2.9735    2.9468   16.2753 H   0  0  0  0  0  0  0  0  0  0  0  0
    1.4361    4.8761   15.9347 H   0  0  0  0  0  0  0  0  0  0  0  0
    1.7595    6.3816   13.9737 H   0  0  0  0  0  0  0  0  0  0  0  0
    3.6228    5.9759   12.3903 H   0  0  0  0  0  0  0  0  0  0  0  0
   14.4848   13.7633    6.1134 H   0  0  0  0  0  0  0  0  0  0  0  0
   16.3282   14.8750    4.8646 H   0  0  0  0  0  0  0  0  0  0  0  0
   16.5556   17.3546    4.9288 H   0  0  0  0  0  0  0  0  0  0  0  0
   14.9192   18.7132    6.2249 H   0  0  0  0  0  0  0  0  0  0  0  0
   13.0974   17.6065    7.4931 H   0  0  0  0  0  0  0  0  0  0  0  0
   11.8892   14.2543    5.7631 H   0  0  0  0  0  0  0  0  0  0  0  0
    9.7644   12.7600    5.8134 H   0  0  0  0  0  0  0  0  0  0  0  0
    8.1494   11.4419    7.1848 H   0  0  0  0  0  0  0  0  0  0  0  0
   10.1307   12.9605   10.6945 H   0  0  0  0  0  0  0  0  0  0  0  0
    7.8055    6.6697   11.4496 H   0  0  0  0  0  0  0  0  0  0  0  0
    5.9349    9.3607   14.2540 H   0  0  0  0  0  0  0  0  0  0  0  0
    5.7376    7.4351   15.8307 H   0  0  0  0  0  0  0  0  0  0  0  0
    6.5161    4.9558   16.3688 H   0  0  0  0  0  0  0  0  0  0  0  0
    8.7641    4.0378   16.8622 H   0  0  0  0  0  0  0  0  0  0  0  0
    9.5299    2.2103   18.3534 H   0  0  0  0  0  0  0  0  0  0  0  0
    8.8057   -0.1362   17.9269 H   0  0  0  0  0  0  0  0  0  0  0  0
    7.2705   -0.6283   16.0289 H   0  0  0  0  0  0  0  0  0  0  0  0
    6.5047    1.1834   14.5411 H   0  0  0  0  0  0  0  0  0  0  0  0
    7.0930    7.9832   10.0094 H   0  0  0  0  0  0  0  0  0  0  0  0
    8.0407    9.6131    8.4703 H   0  0  0  0  0  0  0  0  0  0  0  0
    8.3275   12.4778   11.6914 H   0  0  0  0  0  0  0  0  0  0  0  0
    7.4740   10.8059   13.2561 H   0  0  0  0  0  0  0  0  0  0  0  0
   10.5126    6.8343   14.9465 H   0  0  0  0  0  0  0  0  0  0  0  0
   11.2268    7.1619   10.3108 H   0  0  0  0  0  0  0  0  0  0  0  0
   11.4096   10.9495   12.0247 H   0  0  0  0  0  0  0  0  0  0  0  0
   11.2909    9.0541    7.7967 H   0  0  0  0  0  0  0  0  0  0  0  0
  1  5  1  0  0  0  0
  1 55  1  0  0  0  0
  1  6  1  0  0  0  0
  2  7  1  0  0  0  0
  2105  1  0  0  0  0
  2106  1  0  0  0  0
  3 30  1  0  0  0  0
  4215  1  0  0  0  0
  5 15  1  0  0  0  0
  6 16  1  0  0  0  0
  6 20  1  0  0  0  0
  7 41  1  0  0  0  0
  7 45  1  0  0  0  0
  8 46  1  0  0  0  0
  8  2  1  0  0  0  0
  9 14  1  0  0  0  0
  9  5  1  0  0  0  0
 10  9  2  0  0  0  0
 11 12  2  0  0  0  0
 11 10  1  0  0  0  0
 12 13  1  0  0  0  0
 13140  1  0  0  0  0
 13 14  2  0  0  0  0
 14141  1  0  0  0  0
 15142  1  0  0  0  0
 15 16  2  0  0  0  0
 16 17  1  0  0  0  0
 17143  1  0  0  0  0
 17 18  2  0  0  0  0
 18144  1  0  0  0  0
 19 18  1  0  0  0  0
 19 21  1  0  0  0  0
 20 19  2  0  0  0  0
 21 22  1  0  0  0  0
 22146  1  0  0  0  0
 22 23  2  0  0  0  0
 23 24  1  0  0  0  0
 24147  1  0  0  0  0
 24 25  2  0  0  0  0
 25148  1  0  0  0  0
 26 25  1  0  0  0  0
 26149  1  0  0  0  0
 27 26  2  0  0  0  0
 28 23  1  0  0  0  0
 28 27  1  0  0  0  0
 29 28  2  0  0  0  0
 30 21  2  0  0  0  0
 30 29  1  0  0  0  0
 31 40  1  0  0  0  0
 31 29  1  0  0  0  0
 32 31  2  0  0  0  0
 33 32  1  0  0  0  0
 33151  1  0  0  0  0
 34152  1  0  0  0  0
 34 33  2  0  0  0  0
 35 34  1  0  0  0  0
 36 35  2  0  0  0  0
 36 37  1  0  0  0  0
 37 38  2  0  0  0  0
 37 32  1  0  0  0  0
 38 39  1  0  0  0  0
 39 40  2  0  0  0  0
 40  4  1  0  0  0  0
 41 42  2  0  0  0  0
 42 39  1  0  0  0  0
 42 43  1  0  0  0  0
 43157  1  0  0  0  0
 44158  1  0  0  0  0
 44 43  2  0  0  0  0
 45 44  1  0  0  0  0
 46 45  2  0  0  0  0
 47 52  1  0  0  0  0
 47  8  1  0  0  0  0
 48 47  2  0  0  0  0
 49 50  2  0  0  0  0
 49 48  1  0  0  0  0
 50 51  1  0  0  0  0
 51163  1  0  0  0  0
 51 52  2  0  0  0  0
 52164  1  0  0  0  0
 53 80  1  0  0  0  0
 54216  1  0  0  0  0
 55 59  1  0  0  0  0
 56  1  1  0  0  0  0
 57  2  1  0  0  0  0
 58  2  1  0  0  0  0
 58 97  1  0  0  0  0
 59 60  2  0  0  0  0
 60 61  1  0  0  0  0
 60165  1  0  0  0  0
 61166  1  0  0  0  0
 62167  1  0  0  0  0
 62 61  2  0  0  0  0
 63 62  1  0  0  0  0
 64 63  2  0  0  0  0
 64 59  1  0  0  0  0
 65170  1  0  0  0  0
 65 55  1  0  0  0  0
 66 56  1  0  0  0  0
 66 65  2  0  0  0  0
 67 66  1  0  0  0  0
 68 67  2  0  0  0  0
 68 69  1  0  0  0  0
 69 71  1  0  0  0  0
 69 70  2  0  0  0  0
 70 56  1  0  0  0  0
 70173  1  0  0  0  0
 71 72  2  0  0  0  0
 72174  1  0  0  0  0
 73 72  1  0  0  0  0
 73 74  2  0  0  0  0
 74175  1  0  0  0  0
 75 74  1  0  0  0  0
 75176  1  0  0  0  0
 76 75  2  0  0  0  0
 77 78  2  0  0  0  0
 77 76  1  0  0  0  0
 78 73  1  0  0  0  0
 79 78  1  0  0  0  0
 80 79  2  0  0  0  0
 80 71  1  0  0  0  0
 81 79  1  0  0  0  0
 81 90  2  0  0  0  0
 82 81  1  0  0  0  0
 83179  1  0  0  0  0
 83 82  2  0  0  0  0
 84 83  1  0  0  0  0
 85 84  2  0  0  0  0
 85 86  1  0  0  0  0
 86 87  2  0  0  0  0
 87 82  1  0  0  0  0
 87 88  1  0  0  0  0
 88 89  2  0  0  0  0
 89 90  1  0  0  0  0
 89 92  1  0  0  0  0
 90 54  1  0  0  0  0
 91184  1  0  0  0  0
 91 57  1  0  0  0  0
 92 91  2  0  0  0  0
 93 92  1  0  0  0  0
 93 94  2  0  0  0  0
 94 95  1  0  0  0  0
 95 57  1  0  0  0  0
 95 96  2  0  0  0  0
 96 58  1  0  0  0  0
 97 98  1  0  0  0  0
 98188  1  0  0  0  0
 98 99  2  0  0  0  0
 99189  1  0  0  0  0
100 99  1  0  0  0  0
100190  1  0  0  0  0
101100  2  0  0  0  0
102 97  2  0  0  0  0
102101  1  0  0  0  0
103  1  1  0  0  0  0
104  1  1  0  0  0  0
104118  1  0  0  0  0
105123  1  0  0  0  0
106124  1  0  0  0  0
106125  1  0  0  0  0
107112  1  0  0  0  0
107103  1  0  0  0  0
108107  2  0  0  0  0
109110  2  0  0  0  0
109108  1  0  0  0  0
110111  1  0  0  0  0
111196  1  0  0  0  0
111112  2  0  0  0  0
112197  1  0  0  0  0
113114  2  0  0  0  0
113103  1  0  0  0  0
114104  1  0  0  0  0
115114  1  0  0  0  0
115116  2  0  0  0  0
116117  1  0  0  0  0
117118  2  0  0  0  0
117134  1  0  0  0  0
118201  1  0  0  0  0
119120  2  0  0  0  0
119105  1  0  0  0  0
120121  1  0  0  0  0
121203  1  0  0  0  0
121122  2  0  0  0  0
122204  1  0  0  0  0
123122  1  0  0  0  0
123124  2  0  0  0  0
124205  1  0  0  0  0
125126  1  0  0  0  0
126206  1  0  0  0  0
126127  2  0  0  0  0
127207  1  0  0  0  0
128127  1  0  0  0  0
128208  1  0  0  0  0
129128  2  0  0  0  0
130125  2  0  0  0  0
130129  1  0  0  0  0
131136  1  0  0  0  0
131120  1  0  0  0  0
132131  2  0  0  0  0
133134  2  0  0  0  0
133132  1  0  0  0  0
134135  1  0  0  0  0
135213  1  0  0  0  0
135136  2  0  0  0  0
136214  1  0  0  0  0
137 10  1  0  0  0  0
138 11  1  0  0  0  0
139 12  1  0  0  0  0
145 20  1  0  0  0  0
150 27  1  0  0  0  0
153 35  1  0  0  0  0
154 36  1  0  0  0  0
155 38  1  0  0  0  0
156 41  1  0  0  0  0
159 46  1  0  0  0  0
160 48  1  0  0  0  0
161 49  1  0  0  0  0
162 50  1  0  0  0  0
168 63  1  0  0  0  0
169 64  1  0  0  0  0
171 67  1  0  0  0  0
172 68  1  0  0  0  0
177 76  1  0  0  0  0
178 77  1  0  0  0  0
180 84  1  0  0  0  0
181 85  1  0  0  0  0
182 86  1  0  0  0  0
183 88  1  0  0  0  0
185 93  1  0  0  0  0
186 94  1  0  0  0  0
187 96  1  0  0  0  0
191101  1  0  0  0  0
192102  1  0  0  0  0
193108  1  0  0  0  0
194109  1  0  0  0  0
195110  1  0  0  0  0
198113  1  0  0  0  0
199115  1  0  0  0  0
200116  1  0  0  0  0
202119  1  0  0  0  0
209129  1  0  0  0  0
210130  1  0  0  0  0
211132  1  0  0  0  0
212133  1  0  0  0  0
217  3  1  0  0  0  0
218 53  1  0  0  0  0
M  END
