
 OpenBabel04152109413D

230258  0  0  0  0  0  0  0  0999 V2000
   12.0805   15.0810   10.8350 Fe  0  0  0  0  0  0  0  0  0  0  0  0
    7.1921    3.9992   12.6924 Fe  0  0  0  0  0  0  0  0  0  0  0  0
   13.0184   10.4393   13.2543 O   0  0  0  0  0  0  0  0  0  0  0  0
   10.7544    8.6468   15.6388 O   0  0  0  0  0  0  0  0  0  0  0  0
   10.6784   15.9992    9.8247 N   0  0  0  0  0  0  0  0  0  0  0  0
   11.8734   13.7328    9.4582 N   0  0  0  0  0  0  0  0  0  0  0  0
    8.7670    3.6052   11.6065 N   0  0  0  0  0  0  0  0  0  0  0  0
    7.7576    2.4157   13.6841 N   0  0  0  0  0  0  0  0  0  0  0  0
    9.8196   17.0416   10.2496 C   0  0  0  0  0  0  0  0  0  0  0  0
    8.4321   16.8414   10.2040 C   0  0  0  0  0  0  0  0  0  0  0  0
    7.5649   17.8460   10.6215 C   0  0  0  0  0  0  0  0  0  0  0  0
    8.0713   19.0591   11.0860 C   0  0  0  0  0  0  0  0  0  0  0  0
    9.4515   19.2566   11.1413 C   0  0  0  0  0  0  0  0  0  0  0  0
   10.3241   18.2507   10.7403 C   0  0  0  0  0  0  0  0  0  0  0  0
   10.3994   15.3926    8.7235 C   0  0  0  0  0  0  0  0  0  0  0  0
   11.0701   14.1415    8.4576 C   0  0  0  0  0  0  0  0  0  0  0  0
   10.8399   13.3490    7.3322 C   0  0  0  0  0  0  0  0  0  0  0  0
   11.4162   12.0883    7.2689 C   0  0  0  0  0  0  0  0  0  0  0  0
   12.2297   11.6455    8.3238 C   0  0  0  0  0  0  0  0  0  0  0  0
   12.4419   12.5336    9.3878 C   0  0  0  0  0  0  0  0  0  0  0  0
   14.3402   11.8663   14.6662 C   0  0  0  0  0  0  0  0  0  0  0  0
   14.9228   12.0977   15.8975 C   0  0  0  0  0  0  0  0  0  0  0  0
   14.8608   11.1463   16.9393 C   0  0  0  0  0  0  0  0  0  0  0  0
   15.4310   11.4016   18.2124 C   0  0  0  0  0  0  0  0  0  0  0  0
   15.3831   10.4496   19.2022 C   0  0  0  0  0  0  0  0  0  0  0  0
   14.7635    9.2040   18.9567 C   0  0  0  0  0  0  0  0  0  0  0  0
   14.1989    8.9279   17.7317 C   0  0  0  0  0  0  0  0  0  0  0  0
   14.2283    9.8898   16.6922 C   0  0  0  0  0  0  0  0  0  0  0  0
   13.6430    9.6438   15.4121 C   0  0  0  0  0  0  0  0  0  0  0  0
   13.6710   10.6256   14.4413 C   0  0  0  0  0  0  0  0  0  0  0  0
   13.7583    9.8337   12.2104 C   0  0  0  0  0  0  0  0  0  0  0  0
   13.1197    8.2834   15.1027 C   0  0  0  0  0  0  0  0  0  0  0  0
   14.1008    7.3177   14.6877 C   0  0  0  0  0  0  0  0  0  0  0  0
   15.4740    7.6503   14.5574 C   0  0  0  0  0  0  0  0  0  0  0  0
   16.3948    6.7140   14.1430 C   0  0  0  0  0  0  0  0  0  0  0  0
   16.0018    5.3917   13.8438 C   0  0  0  0  0  0  0  0  0  0  0  0
   14.6821    5.0319   13.9752 C   0  0  0  0  0  0  0  0  0  0  0  0
   13.7128    5.9778   14.3940 C   0  0  0  0  0  0  0  0  0  0  0  0
   12.3555    5.6253   14.5427 C   0  0  0  0  0  0  0  0  0  0  0  0
   11.4126    6.5345   14.9647 C   0  0  0  0  0  0  0  0  0  0  0  0
   11.7974    7.8908   15.2462 C   0  0  0  0  0  0  0  0  0  0  0  0
   10.8009   10.0416   15.8234 C   0  0  0  0  0  0  0  0  0  0  0  0
    9.2764    4.2931   10.5895 C   0  0  0  0  0  0  0  0  0  0  0  0
   10.2739    3.7776    9.7440 C   0  0  0  0  0  0  0  0  0  0  0  0
   10.7006    2.4633    9.9813 C   0  0  0  0  0  0  0  0  0  0  0  0
   10.1874    1.7535   11.0585 C   0  0  0  0  0  0  0  0  0  0  0  0
    9.2317    2.3647   11.8667 C   0  0  0  0  0  0  0  0  0  0  0  0
    8.7030    1.7855   13.0802 C   0  0  0  0  0  0  0  0  0  0  0  0
    7.4401    2.0308   15.0106 C   0  0  0  0  0  0  0  0  0  0  0  0
    8.4821    1.8771   15.9364 C   0  0  0  0  0  0  0  0  0  0  0  0
    8.2050    1.4999   17.2466 C   0  0  0  0  0  0  0  0  0  0  0  0
    6.8888    1.2718   17.6451 C   0  0  0  0  0  0  0  0  0  0  0  0
    5.8502    1.4332   16.7275 C   0  0  0  0  0  0  0  0  0  0  0  0
    6.1179    1.8240   15.4191 C   0  0  0  0  0  0  0  0  0  0  0  0
   10.8022    9.4255    7.8122 O   0  0  0  0  0  0  0  0  0  0  0  0
   11.1328    6.4662   10.0938 O   0  0  0  0  0  0  0  0  0  0  0  0
   13.5740   15.7371    9.7645 N   0  0  0  0  0  0  0  0  0  0  0  0
   13.4868   14.1384   11.8096 N   0  0  0  0  0  0  0  0  0  0  0  0
    8.1469    5.0115   14.0409 N   0  0  0  0  0  0  0  0  0  0  0  0
    5.6389    4.4099   13.8116 N   0  0  0  0  0  0  0  0  0  0  0  0
   13.5675   16.2809    8.4555 C   0  0  0  0  0  0  0  0  0  0  0  0
   12.8297   17.4276    8.1428 C   0  0  0  0  0  0  0  0  0  0  0  0
   12.8667   17.9456    6.8523 C   0  0  0  0  0  0  0  0  0  0  0  0
   13.6133   17.3139    5.8573 C   0  0  0  0  0  0  0  0  0  0  0  0
   14.3294   16.1570    6.1603 C   0  0  0  0  0  0  0  0  0  0  0  0
   14.3085   15.6407    7.4522 C   0  0  0  0  0  0  0  0  0  0  0  0
   14.7095   15.4327   10.2873 C   0  0  0  0  0  0  0  0  0  0  0  0
   14.7042   14.6225   11.4834 C   0  0  0  0  0  0  0  0  0  0  0  0
   15.8445   14.3003   12.2151 C   0  0  0  0  0  0  0  0  0  0  0  0
   15.7236   13.4203   13.2822 C   0  0  0  0  0  0  0  0  0  0  0  0
   14.4755   12.8579   13.5847 C   0  0  0  0  0  0  0  0  0  0  0  0
   13.3757   13.2781   12.8167 C   0  0  0  0  0  0  0  0  0  0  0  0
   12.8621   10.3163    8.3661 C   0  0  0  0  0  0  0  0  0  0  0  0
   14.1946   10.2047    8.6902 C   0  0  0  0  0  0  0  0  0  0  0  0
   14.8398    8.9522    8.7550 C   0  0  0  0  0  0  0  0  0  0  0  0
   16.2181    8.8446    9.0685 C   0  0  0  0  0  0  0  0  0  0  0  0
   16.8324    7.6163    9.1168 C   0  0  0  0  0  0  0  0  0  0  0  0
   16.0828    6.4526    8.8402 C   0  0  0  0  0  0  0  0  0  0  0  0
   14.7438    6.5300    8.5286 C   0  0  0  0  0  0  0  0  0  0  0  0
   14.0750    7.7805    8.4820 C   0  0  0  0  0  0  0  0  0  0  0  0
   12.6752    7.8829    8.1693 C   0  0  0  0  0  0  0  0  0  0  0  0
   12.0843    9.1359    8.1050 C   0  0  0  0  0  0  0  0  0  0  0  0
    9.7825    8.4670    7.6637 C   0  0  0  0  0  0  0  0  0  0  0  0
   11.9863    6.5953    7.8712 C   0  0  0  0  0  0  0  0  0  0  0  0
   12.1015    6.0307    6.5632 C   0  0  0  0  0  0  0  0  0  0  0  0
   12.7156    6.7260    5.4927 C   0  0  0  0  0  0  0  0  0  0  0  0
   12.7996    6.1537    4.2433 C   0  0  0  0  0  0  0  0  0  0  0  0
   12.2772    4.8634    4.0020 C   0  0  0  0  0  0  0  0  0  0  0  0
   11.6786    4.1625    5.0211 C   0  0  0  0  0  0  0  0  0  0  0  0
   11.5779    4.7242    6.3193 C   0  0  0  0  0  0  0  0  0  0  0  0
   10.9884    4.0133    7.3873 C   0  0  0  0  0  0  0  0  0  0  0  0
   10.8543    4.5695    8.6450 C   0  0  0  0  0  0  0  0  0  0  0  0
   11.3449    5.8912    8.8715 C   0  0  0  0  0  0  0  0  0  0  0  0
   12.1497    6.2909   11.0630 C   0  0  0  0  0  0  0  0  0  0  0  0
    9.4213    5.3875   14.0420 C   0  0  0  0  0  0  0  0  0  0  0  0
   10.0054    6.1192   15.0864 C   0  0  0  0  0  0  0  0  0  0  0  0
    9.1984    6.4097   16.1977 C   0  0  0  0  0  0  0  0  0  0  0  0
    7.8741    5.9961   16.2074 C   0  0  0  0  0  0  0  0  0  0  0  0
    7.3699    5.3168   15.0978 C   0  0  0  0  0  0  0  0  0  0  0  0
    5.9762    4.9904   14.9105 C   0  0  0  0  0  0  0  0  0  0  0  0
    4.2638    4.3697   13.4766 C   0  0  0  0  0  0  0  0  0  0  0  0
    3.6623    3.2025   12.9940 C   0  0  0  0  0  0  0  0  0  0  0  0
    2.3052    3.1954   12.6895 C   0  0  0  0  0  0  0  0  0  0  0  0
    1.5413    4.3538   12.8351 C   0  0  0  0  0  0  0  0  0  0  0  0
    2.1429    5.5258   13.2914 C   0  0  0  0  0  0  0  0  0  0  0  0
    3.4968    5.5364   13.6111 C   0  0  0  0  0  0  0  0  0  0  0  0
   12.2241   16.3946   12.2849 N   0  0  0  0  0  0  0  0  0  0  0  0
   10.6176   14.4108   11.9098 N   0  0  0  0  0  0  0  0  0  0  0  0
    6.6655    5.5702   11.6898 N   0  0  0  0  0  0  0  0  0  0  0  0
    6.2143    3.0606   11.2742 N   0  0  0  0  0  0  0  0  0  0  0  0
   13.3231   17.2208   12.6240 C   0  0  0  0  0  0  0  0  0  0  0  0
   13.8845   18.1044   11.6949 C   0  0  0  0  0  0  0  0  0  0  0  0
   14.9591   18.9073   12.0619 C   0  0  0  0  0  0  0  0  0  0  0  0
   15.5018   18.8195   13.3441 C   0  0  0  0  0  0  0  0  0  0  0  0
   14.9606   17.9223   14.2643 C   0  0  0  0  0  0  0  0  0  0  0  0
   13.8761   17.1265   13.9098 C   0  0  0  0  0  0  0  0  0  0  0  0
   11.2550   16.2999   13.1279 C   0  0  0  0  0  0  0  0  0  0  0  0
   10.2926   15.2412   12.9205 C   0  0  0  0  0  0  0  0  0  0  0  0
    9.1663   15.0245   13.7152 C   0  0  0  0  0  0  0  0  0  0  0  0
    8.3724   13.9119   13.4658 C   0  0  0  0  0  0  0  0  0  0  0  0
    8.7212   13.0374   12.4278 C   0  0  0  0  0  0  0  0  0  0  0  0
    9.8578   13.3496   11.6718 C   0  0  0  0  0  0  0  0  0  0  0  0
    6.9689    6.8369   11.9438 C   0  0  0  0  0  0  0  0  0  0  0  0
    6.4096    7.9117   11.2415 C   0  0  0  0  0  0  0  0  0  0  0  0
    5.4722    7.6183   10.2420 C   0  0  0  0  0  0  0  0  0  0  0  0
    5.1514    6.2930    9.9778 C   0  0  0  0  0  0  0  0  0  0  0  0
    5.7746    5.2884   10.7185 C   0  0  0  0  0  0  0  0  0  0  0  0
    5.5997    3.8731   10.4866 C   0  0  0  0  0  0  0  0  0  0  0  0
    6.2933    1.6993   10.8921 C   0  0  0  0  0  0  0  0  0  0  0  0
    6.6377    1.3822    9.5697 C   0  0  0  0  0  0  0  0  0  0  0  0
    6.7232    0.0532    9.1683 C   0  0  0  0  0  0  0  0  0  0  0  0
    6.4643   -0.9709   10.0786 C   0  0  0  0  0  0  0  0  0  0  0  0
    6.1343   -0.6577   11.3975 C   0  0  0  0  0  0  0  0  0  0  0  0
    6.0624    0.6685   11.8106 C   0  0  0  0  0  0  0  0  0  0  0  0
    6.8738    9.2749   11.5502 C   0  0  0  0  0  0  0  0  0  0  0  0
    7.2124   10.1572   10.5164 C   0  0  0  0  0  0  0  0  0  0  0  0
    7.7790   11.3917   10.8011 C   0  0  0  0  0  0  0  0  0  0  0  0
    8.0007   11.7881   12.1279 C   0  0  0  0  0  0  0  0  0  0  0  0
    7.6056   10.9304   13.1627 C   0  0  0  0  0  0  0  0  0  0  0  0
    7.0622    9.6851   12.8775 C   0  0  0  0  0  0  0  0  0  0  0  0
    8.0369   15.8811    9.8645 H   0  0  0  0  0  0  0  0  0  0  0  0
    6.4858   17.6806   10.5830 H   0  0  0  0  0  0  0  0  0  0  0  0
    7.3917   19.8511   11.4079 H   0  0  0  0  0  0  0  0  0  0  0  0
    9.8558   20.2064   11.4979 H   0  0  0  0  0  0  0  0  0  0  0  0
   11.3980   18.4179   10.7940 H   0  0  0  0  0  0  0  0  0  0  0  0
    9.6340   15.7671    8.0325 H   0  0  0  0  0  0  0  0  0  0  0  0
   10.2021   13.7198    6.5273 H   0  0  0  0  0  0  0  0  0  0  0  0
   11.2398   11.4418    6.4091 H   0  0  0  0  0  0  0  0  0  0  0  0
   13.0622   12.2370   10.2350 H   0  0  0  0  0  0  0  0  0  0  0  0
   15.4315   13.0464   16.0876 H   0  0  0  0  0  0  0  0  0  0  0  0
   15.9117   12.3657   18.3942 H   0  0  0  0  0  0  0  0  0  0  0  0
   15.8267   10.6494   20.1795 H   0  0  0  0  0  0  0  0  0  0  0  0
   14.7348    8.4541   19.7502 H   0  0  0  0  0  0  0  0  0  0  0  0
   13.7261    7.9610   17.5514 H   0  0  0  0  0  0  0  0  0  0  0  0
   14.6198   10.4574   11.9137 H   0  0  0  0  0  0  0  0  0  0  0  0
   14.1297    8.8399   12.5012 H   0  0  0  0  0  0  0  0  0  0  0  0
   13.0808    9.7280   11.3532 H   0  0  0  0  0  0  0  0  0  0  0  0
   15.8056    8.6609   14.7978 H   0  0  0  0  0  0  0  0  0  0  0  0
   17.4470    6.9950   14.0574 H   0  0  0  0  0  0  0  0  0  0  0  0
   16.7481    4.6604   13.5270 H   0  0  0  0  0  0  0  0  0  0  0  0
   14.3630    4.0063   13.7723 H   0  0  0  0  0  0  0  0  0  0  0  0
   12.0593    4.5918   14.3459 H   0  0  0  0  0  0  0  0  0  0  0  0
   11.0871   10.5551   14.8934 H   0  0  0  0  0  0  0  0  0  0  0  0
   11.4821   10.3308   16.6365 H   0  0  0  0  0  0  0  0  0  0  0  0
    9.7786   10.3309   16.1021 H   0  0  0  0  0  0  0  0  0  0  0  0
    8.8869    5.2981   10.4282 H   0  0  0  0  0  0  0  0  0  0  0  0
   11.4644    2.0163    9.3408 H   0  0  0  0  0  0  0  0  0  0  0  0
   10.5278    0.7411   11.2844 H   0  0  0  0  0  0  0  0  0  0  0  0
    9.1411    0.8665   13.4897 H   0  0  0  0  0  0  0  0  0  0  0  0
    9.5101    2.0816   15.6279 H   0  0  0  0  0  0  0  0  0  0  0  0
    9.0231    1.3830   17.9605 H   0  0  0  0  0  0  0  0  0  0  0  0
    6.6703    0.9686   18.6714 H   0  0  0  0  0  0  0  0  0  0  0  0
    4.8176    1.2501   17.0324 H   0  0  0  0  0  0  0  0  0  0  0  0
    5.2958    1.9460   14.7158 H   0  0  0  0  0  0  0  0  0  0  0  0
   12.2416   17.9320    8.9073 H   0  0  0  0  0  0  0  0  0  0  0  0
   12.3078   18.8556    6.6234 H   0  0  0  0  0  0  0  0  0  0  0  0
   13.6360   17.7247    4.8456 H   0  0  0  0  0  0  0  0  0  0  0  0
   14.9107   15.6527    5.3855 H   0  0  0  0  0  0  0  0  0  0  0  0
   14.8483   14.7202    7.6866 H   0  0  0  0  0  0  0  0  0  0  0  0
   15.6596   15.7293    9.8254 H   0  0  0  0  0  0  0  0  0  0  0  0
   16.8104   14.7271   11.9376 H   0  0  0  0  0  0  0  0  0  0  0  0
   16.6038   13.1334   13.8620 H   0  0  0  0  0  0  0  0  0  0  0  0
   12.3778   12.8974   13.0341 H   0  0  0  0  0  0  0  0  0  0  0  0
   14.7842   11.1074    8.8699 H   0  0  0  0  0  0  0  0  0  0  0  0
   16.7869    9.7587    9.2580 H   0  0  0  0  0  0  0  0  0  0  0  0
   17.8956    7.5359    9.3515 H   0  0  0  0  0  0  0  0  0  0  0  0
   16.5750    5.4776    8.8614 H   0  0  0  0  0  0  0  0  0  0  0  0
   14.1900    5.6177    8.3053 H   0  0  0  0  0  0  0  0  0  0  0  0
    9.9731    7.7839    6.8239 H   0  0  0  0  0  0  0  0  0  0  0  0
    9.6433    7.8919    8.5914 H   0  0  0  0  0  0  0  0  0  0  0  0
    8.8722    9.0422    7.4464 H   0  0  0  0  0  0  0  0  0  0  0  0
   13.1275    7.7214    5.6679 H   0  0  0  0  0  0  0  0  0  0  0  0
   13.2760    6.6998    3.4263 H   0  0  0  0  0  0  0  0  0  0  0  0
   12.3546    4.4264    3.0046 H   0  0  0  0  0  0  0  0  0  0  0  0
   11.2742    3.1633    4.8431 H   0  0  0  0  0  0  0  0  0  0  0  0
   10.6122    3.0051    7.1958 H   0  0  0  0  0  0  0  0  0  0  0  0
   11.8169    6.8018   11.9755 H   0  0  0  0  0  0  0  0  0  0  0  0
   13.1040    6.7274   10.7327 H   0  0  0  0  0  0  0  0  0  0  0  0
   12.3110    5.2220   11.2875 H   0  0  0  0  0  0  0  0  0  0  0  0
   10.0040    5.1399   13.1533 H   0  0  0  0  0  0  0  0  0  0  0  0
    9.6128    6.9579   17.0437 H   0  0  0  0  0  0  0  0  0  0  0  0
    7.2213    6.2090   17.0564 H   0  0  0  0  0  0  0  0  0  0  0  0
    5.2329    5.2927   15.6585 H   0  0  0  0  0  0  0  0  0  0  0  0
    4.2460    2.2922   12.8730 H   0  0  0  0  0  0  0  0  0  0  0  0
    1.8390    2.2725   12.3380 H   0  0  0  0  0  0  0  0  0  0  0  0
    0.4772    4.3422   12.5894 H   0  0  0  0  0  0  0  0  0  0  0  0
    1.5537    6.4391   13.4002 H   0  0  0  0  0  0  0  0  0  0  0  0
    3.9756    6.4612   13.9416 H   0  0  0  0  0  0  0  0  0  0  0  0
   13.4763   18.1814   10.6887 H   0  0  0  0  0  0  0  0  0  0  0  0
   15.3742   19.6115   11.3376 H   0  0  0  0  0  0  0  0  0  0  0  0
   16.3483   19.4502   13.6241 H   0  0  0  0  0  0  0  0  0  0  0  0
   15.3853   17.8430   15.2673 H   0  0  0  0  0  0  0  0  0  0  0  0
   13.4716   16.4011   14.6197 H   0  0  0  0  0  0  0  0  0  0  0  0
   11.1781   16.9551   14.0040 H   0  0  0  0  0  0  0  0  0  0  0  0
    8.9213   15.7252   14.5158 H   0  0  0  0  0  0  0  0  0  0  0  0
    7.4765   13.7305   14.0640 H   0  0  0  0  0  0  0  0  0  0  0  0
   10.1769   12.6890   10.8648 H   0  0  0  0  0  0  0  0  0  0  0  0
    7.7167    7.0183   12.7174 H   0  0  0  0  0  0  0  0  0  0  0  0
    4.9844    8.4235    9.6878 H   0  0  0  0  0  0  0  0  0  0  0  0
    4.4225    6.0297    9.2087 H   0  0  0  0  0  0  0  0  0  0  0  0
    5.0033    3.5213    9.6361 H   0  0  0  0  0  0  0  0  0  0  0  0
    6.8704    2.1846    8.8655 H   0  0  0  0  0  0  0  0  0  0  0  0
    6.9920   -0.1851    8.1370 H   0  0  0  0  0  0  0  0  0  0  0  0
    6.5222   -2.0147    9.7623 H   0  0  0  0  0  0  0  0  0  0  0  0
    5.9265   -1.4550   12.1144 H   0  0  0  0  0  0  0  0  0  0  0  0
    5.8103    0.8964   12.8449 H   0  0  0  0  0  0  0  0  0  0  0  0
    7.0734    9.8557    9.4757 H   0  0  0  0  0  0  0  0  0  0  0  0
    8.0550   12.0554    9.9785 H   0  0  0  0  0  0  0  0  0  0  0  0
    7.7672   11.2213   14.2032 H   0  0  0  0  0  0  0  0  0  0  0  0
    6.7811    9.0225   13.6995 H   0  0  0  0  0  0  0  0  0  0  0  0
  1 58  1  0  0  0  0
  1108  1  0  0  0  0
  1107  1  0  0  0  0
  2  8  1  0  0  0  0
  2 60  1  0  0  0  0
  2 59  1  0  0  0  0
  3 30  1  0  0  0  0
  4 42  1  0  0  0  0
  5  9  1  0  0  0  0
  5  1  1  0  0  0  0
  6  1  1  0  0  0  0
  7 47  1  0  0  0  0
  7  2  1  0  0  0  0
  8 49  1  0  0  0  0
  9 14  1  0  0  0  0
 10  9  2  0  0  0  0
 10 11  1  0  0  0  0
 11 12  2  0  0  0  0
 12 13  1  0  0  0  0
 12143  1  0  0  0  0
 13144  1  0  0  0  0
 14145  1  0  0  0  0
 14 13  2  0  0  0  0
 15  5  1  0  0  0  0
 16 15  2  0  0  0  0
 16  6  1  0  0  0  0
 17 16  1  0  0  0  0
 18 17  2  0  0  0  0
 18 19  1  0  0  0  0
 19 73  1  0  0  0  0
 19 20  2  0  0  0  0
 20  6  1  0  0  0  0
 20149  1  0  0  0  0
 21 22  1  0  0  0  0
 22150  1  0  0  0  0
 22 23  2  0  0  0  0
 23 24  1  0  0  0  0
 24151  1  0  0  0  0
 24 25  2  0  0  0  0
 25152  1  0  0  0  0
 26 25  1  0  0  0  0
 26153  1  0  0  0  0
 27 26  2  0  0  0  0
 28 23  1  0  0  0  0
 28 27  1  0  0  0  0
 29 28  2  0  0  0  0
 30 21  2  0  0  0  0
 30 29  1  0  0  0  0
 31156  1  0  0  0  0
 31  3  1  0  0  0  0
 32 41  1  0  0  0  0
 32 29  1  0  0  0  0
 33 32  2  0  0  0  0
 34 33  1  0  0  0  0
 34158  1  0  0  0  0
 35 34  2  0  0  0  0
 36 37  2  0  0  0  0
 36 35  1  0  0  0  0
 37 38  1  0  0  0  0
 38 39  2  0  0  0  0
 38 33  1  0  0  0  0
 39 40  1  0  0  0  0
 40 96  1  0  0  0  0
 40 41  2  0  0  0  0
 41  4  1  0  0  0  0
 42165  1  0  0  0  0
 42164  1  0  0  0  0
 43  7  1  0  0  0  0
 44 45  1  0  0  0  0
 44 43  2  0  0  0  0
 45 46  2  0  0  0  0
 46168  1  0  0  0  0
 46 47  1  0  0  0  0
 47 48  2  0  0  0  0
 48169  1  0  0  0  0
 48  8  1  0  0  0  0
 49 54  2  0  0  0  0
 49 50  1  0  0  0  0
 50 51  2  0  0  0  0
 51 52  1  0  0  0  0
 51171  1  0  0  0  0
 52172  1  0  0  0  0
 53173  1  0  0  0  0
 53 52  2  0  0  0  0
 54 53  1  0  0  0  0
 55 82  1  0  0  0  0
 56 94  1  0  0  0  0
 57 67  1  0  0  0  0
 57  1  1  0  0  0  0
 58 72  1  0  0  0  0
 59 95  1  0  0  0  0
 59 99  1  0  0  0  0
 60100  1  0  0  0  0
 61 57  1  0  0  0  0
 62 61  1  0  0  0  0
 62175  1  0  0  0  0
 63 62  2  0  0  0  0
 64 65  2  0  0  0  0
 64 63  1  0  0  0  0
 65 66  1  0  0  0  0
 66179  1  0  0  0  0
 66 61  2  0  0  0  0
 67 68  2  0  0  0  0
 68 58  1  0  0  0  0
 68 69  1  0  0  0  0
 69 70  2  0  0  0  0
 70 71  1  0  0  0  0
 70182  1  0  0  0  0
 71 21  1  0  0  0  0
 72183  1  0  0  0  0
 72 71  2  0  0  0  0
 73 74  2  0  0  0  0
 74 75  1  0  0  0  0
 74184  1  0  0  0  0
 75 76  2  0  0  0  0
 76 77  1  0  0  0  0
 76185  1  0  0  0  0
 77186  1  0  0  0  0
 78187  1  0  0  0  0
 78 77  2  0  0  0  0
 79 78  1  0  0  0  0
 80 79  2  0  0  0  0
 80 75  1  0  0  0  0
 81 80  1  0  0  0  0
 82 81  2  0  0  0  0
 82 73  1  0  0  0  0
 83 55  1  0  0  0  0
 83190  1  0  0  0  0
 84 81  1  0  0  0  0
 84 93  2  0  0  0  0
 85 84  1  0  0  0  0
 86192  1  0  0  0  0
 86 85  2  0  0  0  0
 87 86  1  0  0  0  0
 88 87  2  0  0  0  0
 88 89  1  0  0  0  0
 89 90  2  0  0  0  0
 90 85  1  0  0  0  0
 90 91  1  0  0  0  0
 91 92  2  0  0  0  0
 92 93  1  0  0  0  0
 92 44  1  0  0  0  0
 93 56  1  0  0  0  0
 94199  1  0  0  0  0
 94197  1  0  0  0  0
 95 96  2  0  0  0  0
 96 97  1  0  0  0  0
 97 98  2  0  0  0  0
 97201  1  0  0  0  0
 98202  1  0  0  0  0
 99 98  1  0  0  0  0
100 99  2  0  0  0  0
100203  1  0  0  0  0
101106  1  0  0  0  0
101 60  1  0  0  0  0
102101  2  0  0  0  0
103104  2  0  0  0  0
103102  1  0  0  0  0
104105  1  0  0  0  0
105207  1  0  0  0  0
105106  2  0  0  0  0
106208  1  0  0  0  0
107111  1  0  0  0  0
107117  1  0  0  0  0
108118  1  0  0  0  0
109123  1  0  0  0  0
109  2  1  0  0  0  0
110  2  1  0  0  0  0
111116  2  0  0  0  0
112113  2  0  0  0  0
112111  1  0  0  0  0
113114  1  0  0  0  0
114211  1  0  0  0  0
114115  2  0  0  0  0
115212  1  0  0  0  0
116115  1  0  0  0  0
116213  1  0  0  0  0
117214  1  0  0  0  0
118117  2  0  0  0  0
118119  1  0  0  0  0
119215  1  0  0  0  0
120119  2  0  0  0  0
120216  1  0  0  0  0
121120  1  0  0  0  0
122108  1  0  0  0  0
122121  2  0  0  0  0
123218  1  0  0  0  0
124135  1  0  0  0  0
124123  2  0  0  0  0
125124  1  0  0  0  0
126125  2  0  0  0  0
126127  1  0  0  0  0
127109  1  0  0  0  0
128127  2  0  0  0  0
128110  1  0  0  0  0
129110  1  0  0  0  0
129134  2  0  0  0  0
130129  1  0  0  0  0
131130  2  0  0  0  0
131132  1  0  0  0  0
132133  2  0  0  0  0
133134  1  0  0  0  0
133225  1  0  0  0  0
134226  1  0  0  0  0
135140  2  0  0  0  0
136137  2  0  0  0  0
136135  1  0  0  0  0
137138  1  0  0  0  0
138121  1  0  0  0  0
138139  2  0  0  0  0
139229  1  0  0  0  0
140139  1  0  0  0  0
140230  1  0  0  0  0
141 10  1  0  0  0  0
142 11  1  0  0  0  0
146 15  1  0  0  0  0
147 17  1  0  0  0  0
148 18  1  0  0  0  0
154 27  1  0  0  0  0
155 31  1  0  0  0  0
157 31  1  0  0  0  0
159 35  1  0  0  0  0
160 36  1  0  0  0  0
161 37  1  0  0  0  0
162 39  1  0  0  0  0
163 42  1  0  0  0  0
166 43  1  0  0  0  0
167 45  1  0  0  0  0
170 50  1  0  0  0  0
174 54  1  0  0  0  0
176 63  1  0  0  0  0
177 64  1  0  0  0  0
178 65  1  0  0  0  0
180 67  1  0  0  0  0
181 69  1  0  0  0  0
188 79  1  0  0  0  0
189 83  1  0  0  0  0
191 83  1  0  0  0  0
193 87  1  0  0  0  0
194 88  1  0  0  0  0
195 89  1  0  0  0  0
196 91  1  0  0  0  0
198 94  1  0  0  0  0
200 95  1  0  0  0  0
204102  1  0  0  0  0
205103  1  0  0  0  0
206104  1  0  0  0  0
209112  1  0  0  0  0
210113  1  0  0  0  0
217122  1  0  0  0  0
219125  1  0  0  0  0
220126  1  0  0  0  0
221128  1  0  0  0  0
222130  1  0  0  0  0
223131  1  0  0  0  0
224132  1  0  0  0  0
227136  1  0  0  0  0
228137  1  0  0  0  0
M  END
