
 OpenBabel04152109423D

242273  0  0  0  0  0  0  0  0999 V2000
    6.9532    0.1271   -0.0943 Zn  0  0  0  0  0  0  0  0  0  0  0  0
    5.7458    1.8211   -0.6654 N   0  0  0  0  0  0  0  0  0  0  0  0
    4.6140    2.2085   -0.1019 C   0  0  0  0  0  0  0  0  0  0  0  0
    4.2049    1.5593    0.6736 H   0  0  0  0  0  0  0  0  0  0  0  0
    3.9585    3.4075   -0.4441 C   0  0  0  0  0  0  0  0  0  0  0  0
    4.5586    4.1803   -1.4475 C   0  0  0  0  0  0  0  0  0  0  0  0
    4.1019    5.1213   -1.7607 H   0  0  0  0  0  0  0  0  0  0  0  0
    5.7391    3.7612   -2.0501 C   0  0  0  0  0  0  0  0  0  0  0  0
    6.2123    4.3567   -2.8338 H   0  0  0  0  0  0  0  0  0  0  0  0
    6.3157    2.5659   -1.6286 C   0  0  0  0  0  0  0  0  0  0  0  0
    7.5836    2.0712   -2.1685 C   0  0  0  0  0  0  0  0  0  0  0  0
    8.0686    0.9707   -1.7374 N   0  0  0  0  0  0  0  0  0  0  0  0
    9.3341    0.5236   -2.1703 C   0  0  0  0  0  0  0  0  0  0  0  0
    9.4614   -0.7767   -2.6711 C   0  0  0  0  0  0  0  0  0  0  0  0
    8.5734   -1.4015   -2.7788 H   0  0  0  0  0  0  0  0  0  0  0  0
   10.7104   -1.2414   -3.0661 C   0  0  0  0  0  0  0  0  0  0  0  0
   10.8094   -2.2469   -3.4804 H   0  0  0  0  0  0  0  0  0  0  0  0
   11.8377   -0.4275   -2.9379 C   0  0  0  0  0  0  0  0  0  0  0  0
   12.8185   -0.8016   -3.2386 H   0  0  0  0  0  0  0  0  0  0  0  0
   11.7090    0.8635   -2.4283 C   0  0  0  0  0  0  0  0  0  0  0  0
   12.5891    1.5017   -2.3235 H   0  0  0  0  0  0  0  0  0  0  0  0
   10.4591    1.3481   -2.0487 C   0  0  0  0  0  0  0  0  0  0  0  0
   10.3588    2.3444   -1.6128 H   0  0  0  0  0  0  0  0  0  0  0  0
    8.0956    2.6675   -2.9385 H   0  0  0  0  0  0  0  0  0  0  0  0
    2.7790    3.8774    0.2988 C   0  0  0  0  0  0  0  0  0  0  0  0
    2.6570    5.2267    0.5753 C   0  0  0  0  0  0  0  0  0  0  0  0
    3.4111    5.9235    0.2021 H   0  0  0  0  0  0  0  0  0  0  0  0
    1.6389    5.7439    1.4013 C   0  0  0  0  0  0  0  0  0  0  0  0
    1.5623    7.1282    1.7030 C   0  0  0  0  0  0  0  0  0  0  0  0
    2.2828    7.8105    1.2453 H   0  0  0  0  0  0  0  0  0  0  0  0
    0.6086    7.6023    2.5708 C   0  0  0  0  0  0  0  0  0  0  0  0
    0.5559    8.6675    2.8043 H   0  0  0  0  0  0  0  0  0  0  0  0
   -0.2911    6.7014    3.1822 C   0  0  0  0  0  0  0  0  0  0  0  0
   -1.0235    7.0795    3.8993 H   0  0  0  0  0  0  0  0  0  0  0  0
   -0.2449    5.3534    2.9027 C   0  0  0  0  0  0  0  0  0  0  0  0
   -0.9302    4.6699    3.4070 H   0  0  0  0  0  0  0  0  0  0  0  0
    0.7085    4.8359    1.9905 C   0  0  0  0  0  0  0  0  0  0  0  0
    0.7763    3.4452    1.6451 C   0  0  0  0  0  0  0  0  0  0  0  0
    1.7868    2.9859    0.8130 C   0  0  0  0  0  0  0  0  0  0  0  0
    1.8748    1.6872    0.4456 O   0  0  0  0  0  0  0  0  0  0  0  0
    1.3171    1.1384    1.0190 H   0  0  0  0  0  0  0  0  0  0  0  0
   -0.2533    2.5115    2.1658 C   0  0  0  0  0  0  0  0  0  0  0  0
   -1.5713    2.7035    1.7726 C   0  0  0  0  0  0  0  0  0  0  0  0
   -2.6311    1.9185    2.3173 C   0  0  0  0  0  0  0  0  0  0  0  0
   -2.3198    0.8914    3.1841 C   0  0  0  0  0  0  0  0  0  0  0  0
   -3.1197    0.2795    3.6083 H   0  0  0  0  0  0  0  0  0  0  0  0
   -0.9910    0.6442    3.5993 C   0  0  0  0  0  0  0  0  0  0  0  0
   -0.6873   -0.3730    4.5405 C   0  0  0  0  0  0  0  0  0  0  0  0
   -1.5035   -0.9872    4.9289 H   0  0  0  0  0  0  0  0  0  0  0  0
    0.6003   -0.5643    4.9829 C   0  0  0  0  0  0  0  0  0  0  0  0
    0.8214   -1.3402    5.7190 H   0  0  0  0  0  0  0  0  0  0  0  0
    1.6304    0.2835    4.5187 C   0  0  0  0  0  0  0  0  0  0  0  0
    2.6412    0.1704    4.9139 H   0  0  0  0  0  0  0  0  0  0  0  0
    1.3699    1.2825    3.6097 C   0  0  0  0  0  0  0  0  0  0  0  0
    2.1687    1.9580    3.2960 H   0  0  0  0  0  0  0  0  0  0  0  0
    0.0567    1.4831    3.1079 C   0  0  0  0  0  0  0  0  0  0  0  0
   -4.0238    2.2252    1.9423 C   0  0  0  0  0  0  0  0  0  0  0  0
   -4.5426    3.5270    1.9528 C   0  0  0  0  0  0  0  0  0  0  0  0
   -3.9223    4.3630    2.2779 H   0  0  0  0  0  0  0  0  0  0  0  0
   -5.8475    3.7475    1.5313 C   0  0  0  0  0  0  0  0  0  0  0  0
   -6.2722    4.7536    1.5256 H   0  0  0  0  0  0  0  0  0  0  0  0
   -6.5985    2.6669    1.0639 C   0  0  0  0  0  0  0  0  0  0  0  0
   -6.1204    1.4143    1.0875 N   0  0  0  0  0  0  0  0  0  0  0  0
   -4.8884    1.2019    1.5321 C   0  0  0  0  0  0  0  0  0  0  0  0
   -4.5244    0.1722    1.5199 H   0  0  0  0  0  0  0  0  0  0  0  0
   -7.4843   -0.0030    0.0217 Zn  0  0  0  0  0  0  0  0  0  0  0  0
   -8.5454   -1.2860   -1.3541 N   0  0  0  0  0  0  0  0  0  0  0  0
   -7.9773   -1.3916   -2.4952 C   0  0  0  0  0  0  0  0  0  0  0  0
   -8.4227   -1.9837   -3.3082 H   0  0  0  0  0  0  0  0  0  0  0  0
   -6.6710   -0.7683   -2.7206 C   0  0  0  0  0  0  0  0  0  0  0  0
   -6.2253    0.0560   -1.7593 N   0  0  0  0  0  0  0  0  0  0  0  0
   -5.0040    0.5621   -1.8466 C   0  0  0  0  0  0  0  0  0  0  0  0
   -4.6829    1.2126   -1.0299 H   0  0  0  0  0  0  0  0  0  0  0  0
   -4.1103    0.2558   -2.8842 C   0  0  0  0  0  0  0  0  0  0  0  0
   -4.5950   -0.5727   -3.9074 C   0  0  0  0  0  0  0  0  0  0  0  0
   -3.9562   -0.8303   -4.7521 H   0  0  0  0  0  0  0  0  0  0  0  0
   -5.8892   -1.0735   -3.8350 C   0  0  0  0  0  0  0  0  0  0  0  0
   -6.2822   -1.7218   -4.6211 H   0  0  0  0  0  0  0  0  0  0  0  0
   -2.7403    0.7954   -2.8604 C   0  0  0  0  0  0  0  0  0  0  0  0
   -2.4898    2.0909   -2.4541 C   0  0  0  0  0  0  0  0  0  0  0  0
   -3.3181    2.7348   -2.1491 H   0  0  0  0  0  0  0  0  0  0  0  0
   -1.1934    2.6484   -2.4950 C   0  0  0  0  0  0  0  0  0  0  0  0
   -0.1094    1.8491   -2.9738 C   0  0  0  0  0  0  0  0  0  0  0  0
    1.1590    2.4662   -3.1305 C   0  0  0  0  0  0  0  0  0  0  0  0
    1.9811    1.8906   -3.5618 H   0  0  0  0  0  0  0  0  0  0  0  0
    1.3403    3.7905   -2.8042 C   0  0  0  0  0  0  0  0  0  0  0  0
    2.3109    4.2557   -2.9814 H   0  0  0  0  0  0  0  0  0  0  0  0
    0.2794    4.5687   -2.2908 C   0  0  0  0  0  0  0  0  0  0  0  0
    0.4409    5.6209   -2.0480 H   0  0  0  0  0  0  0  0  0  0  0  0
   -0.9659    4.0052   -2.1484 C   0  0  0  0  0  0  0  0  0  0  0  0
   -1.8118    4.6052   -1.8033 H   0  0  0  0  0  0  0  0  0  0  0  0
   -0.3470    0.4861   -3.3285 C   0  0  0  0  0  0  0  0  0  0  0  0
   -1.6384   -0.0214   -3.2582 C   0  0  0  0  0  0  0  0  0  0  0  0
   -1.9187   -1.2931   -3.5721 O   0  0  0  0  0  0  0  0  0  0  0  0
   -1.0992   -1.7687   -3.7851 H   0  0  0  0  0  0  0  0  0  0  0  0
    0.7289   -0.3959   -3.8494 C   0  0  0  0  0  0  0  0  0  0  0  0
    1.7745   -0.7942   -3.0288 C   0  0  0  0  0  0  0  0  0  0  0  0
    2.7986   -1.6654   -3.5114 C   0  0  0  0  0  0  0  0  0  0  0  0
    2.6936   -2.1676   -4.7933 C   0  0  0  0  0  0  0  0  0  0  0  0
    3.4736   -2.8301   -5.1770 H   0  0  0  0  0  0  0  0  0  0  0  0
    1.6506   -1.7938   -5.6657 C   0  0  0  0  0  0  0  0  0  0  0  0
    1.5870   -2.2870   -6.9941 C   0  0  0  0  0  0  0  0  0  0  0  0
    2.3429   -3.0013   -7.3298 H   0  0  0  0  0  0  0  0  0  0  0  0
    0.6013   -1.8613   -7.8515 C   0  0  0  0  0  0  0  0  0  0  0  0
    0.5593   -2.2386   -8.8752 H   0  0  0  0  0  0  0  0  0  0  0  0
   -0.3466   -0.9116   -7.4113 C   0  0  0  0  0  0  0  0  0  0  0  0
   -1.1066   -0.5509   -8.1082 H   0  0  0  0  0  0  0  0  0  0  0  0
   -0.3141   -0.4212   -6.1245 C   0  0  0  0  0  0  0  0  0  0  0  0
   -1.0397    0.3318   -5.8116 H   0  0  0  0  0  0  0  0  0  0  0  0
    0.6740   -0.8586   -5.2073 C   0  0  0  0  0  0  0  0  0  0  0  0
    3.9797   -2.0045   -2.7016 C   0  0  0  0  0  0  0  0  0  0  0  0
    4.5277   -3.2922   -2.6920 C   0  0  0  0  0  0  0  0  0  0  0  0
    4.0527   -4.0931   -3.2606 H   0  0  0  0  0  0  0  0  0  0  0  0
    5.6722   -3.5604   -1.9501 C   0  0  0  0  0  0  0  0  0  0  0  0
    6.1006   -4.5645   -1.9214 H   0  0  0  0  0  0  0  0  0  0  0  0
    6.2679   -2.5207   -1.2400 C   0  0  0  0  0  0  0  0  0  0  0  0
    5.7692   -1.2728   -1.2765 N   0  0  0  0  0  0  0  0  0  0  0  0
    4.6700   -1.0209   -1.9674 C   0  0  0  0  0  0  0  0  0  0  0  0
    4.3037    0.0069   -1.9522 H   0  0  0  0  0  0  0  0  0  0  0  0
    7.4651   -2.7300   -0.4285 C   0  0  0  0  0  0  0  0  0  0  0  0
    8.0563   -1.7415    0.1284 N   0  0  0  0  0  0  0  0  0  0  0  0
    9.1721   -1.9807    0.9576 C   0  0  0  0  0  0  0  0  0  0  0  0
    9.1194   -2.9643    1.9551 C   0  0  0  0  0  0  0  0  0  0  0  0
    8.1926   -3.5188    2.1237 H   0  0  0  0  0  0  0  0  0  0  0  0
   10.2384   -3.2089    2.7453 C   0  0  0  0  0  0  0  0  0  0  0  0
   10.1945   -3.9705    3.5272 H   0  0  0  0  0  0  0  0  0  0  0  0
   11.4140   -2.4880    2.5354 C   0  0  0  0  0  0  0  0  0  0  0  0
   12.2964   -2.6927    3.1455 H   0  0  0  0  0  0  0  0  0  0  0  0
   11.4597   -1.5059    1.5453 C   0  0  0  0  0  0  0  0  0  0  0  0
   12.3810   -0.9451    1.3727 H   0  0  0  0  0  0  0  0  0  0  0  0
   10.3385   -1.2321    0.7684 C   0  0  0  0  0  0  0  0  0  0  0  0
   10.3774   -0.4700   -0.0106 H   0  0  0  0  0  0  0  0  0  0  0  0
    7.8499   -3.7562   -0.3340 H   0  0  0  0  0  0  0  0  0  0  0  0
    1.8705   -0.4066   -1.7351 O   0  0  0  0  0  0  0  0  0  0  0  0
    1.3368    0.3867   -1.5702 H   0  0  0  0  0  0  0  0  0  0  0  0
   -9.8104   -1.8704   -1.1309 C   0  0  0  0  0  0  0  0  0  0  0  0
  -10.8818   -1.6198   -1.9968 C   0  0  0  0  0  0  0  0  0  0  0  0
  -10.7493   -0.9544   -2.8517 H   0  0  0  0  0  0  0  0  0  0  0  0
  -12.1287   -2.1784   -1.7286 C   0  0  0  0  0  0  0  0  0  0  0  0
  -12.9681   -1.9687   -2.3951 H   0  0  0  0  0  0  0  0  0  0  0  0
  -12.3058   -2.9988   -0.6155 C   0  0  0  0  0  0  0  0  0  0  0  0
  -13.2837   -3.4401   -0.4119 H   0  0  0  0  0  0  0  0  0  0  0  0
  -11.2311   -3.2587    0.2369 C   0  0  0  0  0  0  0  0  0  0  0  0
  -11.3664   -3.9137    1.1001 H   0  0  0  0  0  0  0  0  0  0  0  0
   -9.9886   -2.6855   -0.0071 C   0  0  0  0  0  0  0  0  0  0  0  0
   -9.1417   -2.8903    0.6485 H   0  0  0  0  0  0  0  0  0  0  0  0
   -6.1647   -1.5675    0.8466 N   0  0  0  0  0  0  0  0  0  0  0  0
   -4.9929   -1.9698    0.3779 C   0  0  0  0  0  0  0  0  0  0  0  0
   -4.7540   -1.6885   -0.6500 H   0  0  0  0  0  0  0  0  0  0  0  0
   -4.0390   -2.6597    1.1454 C   0  0  0  0  0  0  0  0  0  0  0  0
   -4.4231   -3.0079    2.4500 C   0  0  0  0  0  0  0  0  0  0  0  0
   -3.7453   -3.5731    3.0885 H   0  0  0  0  0  0  0  0  0  0  0  0
   -5.6659   -2.6160    2.9313 C   0  0  0  0  0  0  0  0  0  0  0  0
   -5.9775   -2.8748    3.9455 H   0  0  0  0  0  0  0  0  0  0  0  0
   -6.5040   -1.8568    2.1131 C   0  0  0  0  0  0  0  0  0  0  0  0
   -7.7561   -1.2927    2.6138 C   0  0  0  0  0  0  0  0  0  0  0  0
   -8.4517   -0.4964    1.8898 N   0  0  0  0  0  0  0  0  0  0  0  0
   -9.6102    0.1119    2.4110 C   0  0  0  0  0  0  0  0  0  0  0  0
  -10.7262    0.2675    1.5800 C   0  0  0  0  0  0  0  0  0  0  0  0
  -10.6903   -0.0819    0.5480 H   0  0  0  0  0  0  0  0  0  0  0  0
  -11.8956    0.8192    2.0924 C   0  0  0  0  0  0  0  0  0  0  0  0
  -12.7722    0.9127    1.4481 H   0  0  0  0  0  0  0  0  0  0  0  0
  -11.9505    1.2523    3.4169 C   0  0  0  0  0  0  0  0  0  0  0  0
  -12.8686    1.6917    3.8128 H   0  0  0  0  0  0  0  0  0  0  0  0
  -10.8261    1.1313    4.2355 C   0  0  0  0  0  0  0  0  0  0  0  0
  -10.8588    1.4887    5.2669 H   0  0  0  0  0  0  0  0  0  0  0  0
   -9.6595    0.5606    3.7401 C   0  0  0  0  0  0  0  0  0  0  0  0
   -8.7734    0.4926    4.3759 H   0  0  0  0  0  0  0  0  0  0  0  0
   -8.0735   -1.5731    3.6284 H   0  0  0  0  0  0  0  0  0  0  0  0
   -2.7146   -2.9652    0.5757 C   0  0  0  0  0  0  0  0  0  0  0  0
   -2.5686   -3.3076   -0.7556 C   0  0  0  0  0  0  0  0  0  0  0  0
   -3.4490   -3.3724   -1.3992 H   0  0  0  0  0  0  0  0  0  0  0  0
   -1.3179   -3.6528   -1.3115 C   0  0  0  0  0  0  0  0  0  0  0  0
   -0.1596   -3.6498   -0.4749 C   0  0  0  0  0  0  0  0  0  0  0  0
    1.0730   -4.0858   -1.0274 C   0  0  0  0  0  0  0  0  0  0  0  0
    1.9551   -4.1366   -0.3851 H   0  0  0  0  0  0  0  0  0  0  0  0
    1.1469   -4.4850   -2.3417 C   0  0  0  0  0  0  0  0  0  0  0  0
    2.0902   -4.8588   -2.7419 H   0  0  0  0  0  0  0  0  0  0  0  0
    0.0074   -4.4662   -3.1773 C   0  0  0  0  0  0  0  0  0  0  0  0
    0.0857   -4.8028   -4.2131 H   0  0  0  0  0  0  0  0  0  0  0  0
   -1.2029   -4.0664   -2.6642 C   0  0  0  0  0  0  0  0  0  0  0  0
   -2.1017   -4.0829   -3.2854 H   0  0  0  0  0  0  0  0  0  0  0  0
   -0.2929   -3.2675    0.8923 C   0  0  0  0  0  0  0  0  0  0  0  0
   -1.5417   -2.9179    1.3905 C   0  0  0  0  0  0  0  0  0  0  0  0
   -1.6989   -2.5519    2.6705 O   0  0  0  0  0  0  0  0  0  0  0  0
   -0.8293   -2.5293    3.1027 H   0  0  0  0  0  0  0  0  0  0  0  0
    0.8244   -3.3886    1.8669 C   0  0  0  0  0  0  0  0  0  0  0  0
    1.8638   -2.4698    1.8942 C   0  0  0  0  0  0  0  0  0  0  0  0
    2.9203   -2.5819    2.8552 C   0  0  0  0  0  0  0  0  0  0  0  0
    2.8508   -3.6027    3.7863 C   0  0  0  0  0  0  0  0  0  0  0  0
    3.6556   -3.7219    4.5152 H   0  0  0  0  0  0  0  0  0  0  0  0
    1.8141   -4.5574    3.8000 C   0  0  0  0  0  0  0  0  0  0  0  0
    1.7889   -5.6097    4.7516 C   0  0  0  0  0  0  0  0  0  0  0  0
    2.5778   -5.6611    5.5063 H   0  0  0  0  0  0  0  0  0  0  0  0
    0.7932   -6.5560    4.7195 C   0  0  0  0  0  0  0  0  0  0  0  0
    0.7774   -7.3664    5.4512 H   0  0  0  0  0  0  0  0  0  0  0  0
   -0.2044   -6.4887    3.7217 C   0  0  0  0  0  0  0  0  0  0  0  0
   -0.9783   -7.2591    3.6854 H   0  0  0  0  0  0  0  0  0  0  0  0
   -0.2063   -5.4768    2.7865 C   0  0  0  0  0  0  0  0  0  0  0  0
   -0.9742   -5.4564    2.0112 H   0  0  0  0  0  0  0  0  0  0  0  0
    0.7954   -4.4746    2.8047 C   0  0  0  0  0  0  0  0  0  0  0  0
    4.0964   -1.6949    2.8651 C   0  0  0  0  0  0  0  0  0  0  0  0
    4.7684   -1.3831    4.0562 C   0  0  0  0  0  0  0  0  0  0  0  0
    4.3785   -1.7337    5.0140 H   0  0  0  0  0  0  0  0  0  0  0  0
    5.9245   -0.6137    4.0323 C   0  0  0  0  0  0  0  0  0  0  0  0
    6.4469   -0.3576    4.9564 H   0  0  0  0  0  0  0  0  0  0  0  0
    6.4034   -0.1608    2.8044 C   0  0  0  0  0  0  0  0  0  0  0  0
    5.7727   -0.4625    1.6577 N   0  0  0  0  0  0  0  0  0  0  0  0
    4.6647   -1.1879    1.6802 C   0  0  0  0  0  0  0  0  0  0  0  0
    4.1900   -1.3911    0.7209 H   0  0  0  0  0  0  0  0  0  0  0  0
    7.5761    0.7066    2.7039 C   0  0  0  0  0  0  0  0  0  0  0  0
    7.9660    1.1433    1.5664 N   0  0  0  0  0  0  0  0  0  0  0  0
    9.0673    2.0229    1.4950 C   0  0  0  0  0  0  0  0  0  0  0  0
   10.2582    1.7623    2.1834 C   0  0  0  0  0  0  0  0  0  0  0  0
   10.3651    0.8394    2.7564 H   0  0  0  0  0  0  0  0  0  0  0  0
   11.3174    2.6614    2.0969 C   0  0  0  0  0  0  0  0  0  0  0  0
   12.2491    2.4500    2.6263 H   0  0  0  0  0  0  0  0  0  0  0  0
   11.1916    3.8287    1.3449 C   0  0  0  0  0  0  0  0  0  0  0  0
   12.0221    4.5357    1.2883 H   0  0  0  0  0  0  0  0  0  0  0  0
    9.9971    4.0963    0.6748 C   0  0  0  0  0  0  0  0  0  0  0  0
    9.8866    5.0235    0.1079 H   0  0  0  0  0  0  0  0  0  0  0  0
    8.9416    3.1921    0.7358 C   0  0  0  0  0  0  0  0  0  0  0  0
    7.9940    3.4115    0.2423 H   0  0  0  0  0  0  0  0  0  0  0  0
    8.0706    1.0119    3.6380 H   0  0  0  0  0  0  0  0  0  0  0  0
    1.9221   -1.4297    1.0344 O   0  0  0  0  0  0  0  0  0  0  0  0
    1.3409   -1.5744    0.2716 H   0  0  0  0  0  0  0  0  0  0  0  0
   -8.4390    1.9265   -0.2577 N   0  0  0  0  0  0  0  0  0  0  0  0
   -7.8855    2.8740    0.4007 C   0  0  0  0  0  0  0  0  0  0  0  0
   -8.3090    3.8888    0.4078 H   0  0  0  0  0  0  0  0  0  0  0  0
   -9.6265    2.1833   -0.9762 C   0  0  0  0  0  0  0  0  0  0  0  0
   -9.7108    1.7328   -2.2979 C   0  0  0  0  0  0  0  0  0  0  0  0
   -8.8602    1.2122   -2.7395 H   0  0  0  0  0  0  0  0  0  0  0  0
  -10.8442    2.0130   -3.0537 C   0  0  0  0  0  0  0  0  0  0  0  0
  -10.8959    1.6915   -4.0965 H   0  0  0  0  0  0  0  0  0  0  0  0
  -11.9087    2.7150   -2.4877 C   0  0  0  0  0  0  0  0  0  0  0  0
  -12.8019    2.9259   -3.0795 H   0  0  0  0  0  0  0  0  0  0  0  0
  -11.8270    3.1557   -1.1667 C   0  0  0  0  0  0  0  0  0  0  0  0
  -12.6600    3.7040   -0.7214 H   0  0  0  0  0  0  0  0  0  0  0  0
  -10.6876    2.9008   -0.4101 C   0  0  0  0  0  0  0  0  0  0  0  0
  -10.6356    3.2227    0.6323 H   0  0  0  0  0  0  0  0  0  0  0  0
   -1.9172    3.6385    0.8754 O   0  0  0  0  0  0  0  0  0  0  0  0
   -1.1200    4.1026    0.5737 H   0  0  0  0  0  0  0  0  0  0  0  0
  1121  1  0  0  0  0
  1212  1  0  0  0  0
  1208  1  0  0  0  0
  2  3  1  0  0  0  0
  2  1  1  0  0  0  0
  3  4  1  0  0  0  0
  5  3  2  0  0  0  0
  5 25  1  0  0  0  0
  6  5  1  0  0  0  0
  7  6  1  0  0  0  0
  8 10  1  0  0  0  0
  8  6  2  0  0  0  0
  9  8  1  0  0  0  0
 10  2  1  0  0  0  0
 11 12  1  0  0  0  0
 11 10  2  0  0  0  0
 12  1  1  0  0  0  0
 13 22  1  0  0  0  0
 13 12  1  0  0  0  0
 14 13  2  0  0  0  0
 15 14  1  0  0  0  0
 16 18  2  0  0  0  0
 16 14  1  0  0  0  0
 17 16  1  0  0  0  0
 18 20  1  0  0  0  0
 19 18  1  0  0  0  0
 20 21  1  0  0  0  0
 20 22  2  0  0  0  0
 22 23  1  0  0  0  0
 24 11  1  0  0  0  0
 25 26  2  0  0  0  0
 25 39  1  0  0  0  0
 26 28  1  0  0  0  0
 27 26  1  0  0  0  0
 28 29  2  0  0  0  0
 28 37  1  0  0  0  0
 29 31  1  0  0  0  0
 30 29  1  0  0  0  0
 31 32  1  0  0  0  0
 31 33  2  0  0  0  0
 33 34  1  0  0  0  0
 35 33  1  0  0  0  0
 35 36  1  0  0  0  0
 37 35  2  0  0  0  0
 38 37  1  0  0  0  0
 38 42  1  0  0  0  0
 39 38  2  0  0  0  0
 40 39  1  0  0  0  0
 40 41  1  0  0  0  0
 42 56  1  0  0  0  0
 43 42  2  0  0  0  0
 43 44  1  0  0  0  0
 44 45  2  0  0  0  0
 45 47  1  0  0  0  0
 45 46  1  0  0  0  0
 47 48  1  0  0  0  0
 48 49  1  0  0  0  0
 48 50  2  0  0  0  0
 50 51  1  0  0  0  0
 52 53  1  0  0  0  0
 52 50  1  0  0  0  0
 54 52  2  0  0  0  0
 55 54  1  0  0  0  0
 56 47  2  0  0  0  0
 56 54  1  0  0  0  0
 57 58  1  0  0  0  0
 57 44  1  0  0  0  0
 58 59  1  0  0  0  0
 60 58  2  0  0  0  0
 61 60  1  0  0  0  0
 62 63  1  0  0  0  0
 62 60  1  0  0  0  0
 63 64  1  0  0  0  0
 64 57  2  0  0  0  0
 65 64  1  0  0  0  0
 66147  1  0  0  0  0
 66 63  1  0  0  0  0
 66157  1  0  0  0  0
 67136  1  0  0  0  0
 67 66  1  0  0  0  0
 68 67  1  0  0  0  0
 69 68  1  0  0  0  0
 70 68  2  0  0  0  0
 70 71  1  0  0  0  0
 71 66  1  0  0  0  0
 72 71  1  0  0  0  0
 72 73  1  0  0  0  0
 74 79  1  0  0  0  0
 74 72  2  0  0  0  0
 75 77  2  0  0  0  0
 75 74  1  0  0  0  0
 76 75  1  0  0  0  0
 77 70  1  0  0  0  0
 78 77  1  0  0  0  0
 79 80  2  0  0  0  0
 80 81  1  0  0  0  0
 82 80  1  0  0  0  0
 82 90  2  0  0  0  0
 83 82  1  0  0  0  0
 84 83  2  0  0  0  0
 84 86  1  0  0  0  0
 85 84  1  0  0  0  0
 86 88  2  0  0  0  0
 87 86  1  0  0  0  0
 88 90  1  0  0  0  0
 88 89  1  0  0  0  0
 90 91  1  0  0  0  0
 92 93  2  0  0  0  0
 92 83  1  0  0  0  0
 93 79  1  0  0  0  0
 94 93  1  0  0  0  0
 95 94  1  0  0  0  0
 96 92  1  0  0  0  0
 96 97  2  0  0  0  0
 97134  1  0  0  0  0
 98 97  1  0  0  0  0
 98111  1  0  0  0  0
 99 98  2  0  0  0  0
100 99  1  0  0  0  0
101110  1  0  0  0  0
101 99  1  0  0  0  0
102101  2  0  0  0  0
103102  1  0  0  0  0
104106  2  0  0  0  0
104102  1  0  0  0  0
105104  1  0  0  0  0
106108  1  0  0  0  0
107106  1  0  0  0  0
108109  1  0  0  0  0
108110  2  0  0  0  0
110 96  1  0  0  0  0
111112  1  0  0  0  0
111118  2  0  0  0  0
112114  2  0  0  0  0
113112  1  0  0  0  0
114115  1  0  0  0  0
114116  1  0  0  0  0
116120  2  0  0  0  0
117116  1  0  0  0  0
117  1  1  0  0  0  0
118119  1  0  0  0  0
118117  1  0  0  0  0
120133  1  0  0  0  0
120121  1  0  0  0  0
121122  1  0  0  0  0
122123  1  0  0  0  0
123124  1  0  0  0  0
123125  2  0  0  0  0
125126  1  0  0  0  0
127125  1  0  0  0  0
127128  1  0  0  0  0
129127  2  0  0  0  0
130129  1  0  0  0  0
131122  2  0  0  0  0
131129  1  0  0  0  0
132131  1  0  0  0  0
134135  1  0  0  0  0
136145  2  0  0  0  0
137139  2  0  0  0  0
137136  1  0  0  0  0
138137  1  0  0  0  0
139141  1  0  0  0  0
140139  1  0  0  0  0
141142  1  0  0  0  0
141143  2  0  0  0  0
143144  1  0  0  0  0
145143  1  0  0  0  0
145146  1  0  0  0  0
147155  1  0  0  0  0
148147  1  0  0  0  0
148150  2  0  0  0  0
149148  1  0  0  0  0
150151  1  0  0  0  0
151153  2  0  0  0  0
151152  1  0  0  0  0
153154  1  0  0  0  0
155156  2  0  0  0  0
155153  1  0  0  0  0
156169  1  0  0  0  0
157158  1  0  0  0  0
157156  1  0  0  0  0
158167  2  0  0  0  0
159161  2  0  0  0  0
159158  1  0  0  0  0
160159  1  0  0  0  0
161163  1  0  0  0  0
162161  1  0  0  0  0
163164  1  0  0  0  0
163165  2  0  0  0  0
165166  1  0  0  0  0
167165  1  0  0  0  0
167168  1  0  0  0  0
170150  1  0  0  0  0
170184  2  0  0  0  0
171170  1  0  0  0  0
172171  1  0  0  0  0
173171  2  0  0  0  0
173174  1  0  0  0  0
174183  2  0  0  0  0
175174  1  0  0  0  0
175176  1  0  0  0  0
177175  2  0  0  0  0
178177  1  0  0  0  0
179181  2  0  0  0  0
179177  1  0  0  0  0
180179  1  0  0  0  0
181173  1  0  0  0  0
182181  1  0  0  0  0
183184  1  0  0  0  0
183187  1  0  0  0  0
184185  1  0  0  0  0
185186  1  0  0  0  0
187188  2  0  0  0  0
187201  1  0  0  0  0
188189  1  0  0  0  0
189202  1  0  0  0  0
189190  2  0  0  0  0
190192  1  0  0  0  0
190191  1  0  0  0  0
192193  2  0  0  0  0
193194  1  0  0  0  0
195193  1  0  0  0  0
195196  1  0  0  0  0
197195  2  0  0  0  0
198197  1  0  0  0  0
199201  2  0  0  0  0
199197  1  0  0  0  0
200199  1  0  0  0  0
201192  1  0  0  0  0
202203  1  0  0  0  0
203204  1  0  0  0  0
205203  2  0  0  0  0
205206  1  0  0  0  0
207205  1  0  0  0  0
208209  1  0  0  0  0
208207  1  0  0  0  0
209202  2  0  0  0  0
210209  1  0  0  0  0
211207  2  0  0  0  0
211224  1  0  0  0  0
212211  1  0  0  0  0
213212  1  0  0  0  0
213214  2  0  0  0  0
214215  1  0  0  0  0
216214  1  0  0  0  0
216217  1  0  0  0  0
218216  2  0  0  0  0
219218  1  0  0  0  0
220222  2  0  0  0  0
220218  1  0  0  0  0
221220  1  0  0  0  0
222213  1  0  0  0  0
223222  1  0  0  0  0
225188  1  0  0  0  0
226225  1  0  0  0  0
227 66  1  0  0  0  0
227228  1  0  0  0  0
228229  1  0  0  0  0
228 62  2  0  0  0  0
230239  1  0  0  0  0
230227  1  0  0  0  0
231230  2  0  0  0  0
232231  1  0  0  0  0
233235  2  0  0  0  0
233231  1  0  0  0  0
234233  1  0  0  0  0
235237  1  0  0  0  0
236235  1  0  0  0  0
237238  1  0  0  0  0
237239  2  0  0  0  0
239240  1  0  0  0  0
241 43  1  0  0  0  0
242241  1  0  0  0  0
M  END
