
 OpenBabel04152109423D

242273  0  0  0  0  0  0  0  0999 V2000
    5.3837    5.5228   39.0560 Zn  0  0  0  0  0  0  0  0  0  0  0  0
    4.3202    4.3225   34.3132 O   0  0  0  0  0  0  0  0  0  0  0  0
    4.7903    3.6469   33.7954 H   0  0  0  0  0  0  0  0  0  0  0  0
    4.6746    7.3683   39.9369 N   0  0  0  0  0  0  0  0  0  0  0  0
    3.7749    6.1430   37.7040 N   0  0  0  0  0  0  0  0  0  0  0  0
    5.2112    7.9475   41.1001 C   0  0  0  0  0  0  0  0  0  0  0  0
    5.3847    7.1338   42.2267 C   0  0  0  0  0  0  0  0  0  0  0  0
    5.0938    6.0829   42.1864 H   0  0  0  0  0  0  0  0  0  0  0  0
    5.8773    7.6829   43.4055 C   0  0  0  0  0  0  0  0  0  0  0  0
    5.9886    7.0507   44.2888 H   0  0  0  0  0  0  0  0  0  0  0  0
    6.2305    9.0312   43.4592 C   0  0  0  0  0  0  0  0  0  0  0  0
    6.6241    9.4582   44.3842 H   0  0  0  0  0  0  0  0  0  0  0  0
    6.0874    9.8355   42.3267 C   0  0  0  0  0  0  0  0  0  0  0  0
    6.3808   10.8869   42.3624 H   0  0  0  0  0  0  0  0  0  0  0  0
    5.5762    9.3015   41.1497 C   0  0  0  0  0  0  0  0  0  0  0  0
    5.4913    9.9268   40.2576 H   0  0  0  0  0  0  0  0  0  0  0  0
    3.8736    8.0169   39.1741 C   0  0  0  0  0  0  0  0  0  0  0  0
    3.5294    9.0305   39.4247 H   0  0  0  0  0  0  0  0  0  0  0  0
    3.3645    7.3986   37.9502 C   0  0  0  0  0  0  0  0  0  0  0  0
    2.5118    8.0627   37.0673 C   0  0  0  0  0  0  0  0  0  0  0  0
    2.1803    9.0805   37.2822 H   0  0  0  0  0  0  0  0  0  0  0  0
    2.1196    7.4225   35.8960 C   0  0  0  0  0  0  0  0  0  0  0  0
    1.4933    7.9525   35.1761 H   0  0  0  0  0  0  0  0  0  0  0  0
    2.5578    6.1206   35.6306 C   0  0  0  0  0  0  0  0  0  0  0  0
    3.3716    5.5212   36.6094 C   0  0  0  0  0  0  0  0  0  0  0  0
    3.7194    4.4988   36.4733 H   0  0  0  0  0  0  0  0  0  0  0  0
    2.1875    5.3909   34.4068 C   0  0  0  0  0  0  0  0  0  0  0  0
    0.9524    5.5729   33.8147 C   0  0  0  0  0  0  0  0  0  0  0  0
    0.2481    6.2843   34.2522 H   0  0  0  0  0  0  0  0  0  0  0  0
    0.5287    4.8292   32.6886 C   0  0  0  0  0  0  0  0  0  0  0  0
   -0.7584    5.0070   32.1187 C   0  0  0  0  0  0  0  0  0  0  0  0
   -1.4256    5.7623   32.5420 H   0  0  0  0  0  0  0  0  0  0  0  0
   -1.1775    4.2182   31.0712 C   0  0  0  0  0  0  0  0  0  0  0  0
   -2.1790    4.3448   30.6546 H   0  0  0  0  0  0  0  0  0  0  0  0
   -0.3236    3.2151   30.5574 C   0  0  0  0  0  0  0  0  0  0  0  0
   -0.6793    2.5681   29.7517 H   0  0  0  0  0  0  0  0  0  0  0  0
    0.9407    3.0326   31.0742 C   0  0  0  0  0  0  0  0  0  0  0  0
    1.5919    2.2491   30.6803 H   0  0  0  0  0  0  0  0  0  0  0  0
    1.4001    3.8363   32.1465 C   0  0  0  0  0  0  0  0  0  0  0  0
    2.6978    3.6790   32.7187 C   0  0  0  0  0  0  0  0  0  0  0  0
    3.0789    4.4498   33.8043 C   0  0  0  0  0  0  0  0  0  0  0  0
    7.2476    5.1945   34.3516 O   0  0  0  0  0  0  0  0  0  0  0  0
    7.7111    5.8960   33.8594 H   0  0  0  0  0  0  0  0  0  0  0  0
    4.1631    3.9440   39.9154 N   0  0  0  0  0  0  0  0  0  0  0  0
    5.8094    3.7946   37.7612 N   0  0  0  0  0  0  0  0  0  0  0  0
    3.4220    4.0162   41.1118 C   0  0  0  0  0  0  0  0  0  0  0  0
    2.6327    5.1477   41.3518 C   0  0  0  0  0  0  0  0  0  0  0  0
    2.5847    5.9372   40.6022 H   0  0  0  0  0  0  0  0  0  0  0  0
    1.8856    5.2337   42.5208 C   0  0  0  0  0  0  0  0  0  0  0  0
    1.2545    6.1073   42.6979 H   0  0  0  0  0  0  0  0  0  0  0  0
    1.9391    4.2089   43.4666 C   0  0  0  0  0  0  0  0  0  0  0  0
    1.3605    4.2855   44.3896 H   0  0  0  0  0  0  0  0  0  0  0  0
    2.7359    3.0877   43.2345 C   0  0  0  0  0  0  0  0  0  0  0  0
    2.7886    2.2899   43.9786 H   0  0  0  0  0  0  0  0  0  0  0  0
    3.4733    2.9843   42.0596 C   0  0  0  0  0  0  0  0  0  0  0  0
    4.1205    2.1197   41.8942 H   0  0  0  0  0  0  0  0  0  0  0  0
    4.1898    2.8546   39.2404 C   0  0  0  0  0  0  0  0  0  0  0  0
    3.5866    1.9834   39.5347 H   0  0  0  0  0  0  0  0  0  0  0  0
    5.0081    2.7509   38.0332 C   0  0  0  0  0  0  0  0  0  0  0  0
    4.9419    1.6487   37.1809 C   0  0  0  0  0  0  0  0  0  0  0  0
    4.2857    0.8084   37.4165 H   0  0  0  0  0  0  0  0  0  0  0  0
    5.6925    1.6552   36.0108 C   0  0  0  0  0  0  0  0  0  0  0  0
    5.6036    0.8192   35.3140 H   0  0  0  0  0  0  0  0  0  0  0  0
    6.5278    2.7416   35.7194 C   0  0  0  0  0  0  0  0  0  0  0  0
    6.5519    3.7836   36.6664 C   0  0  0  0  0  0  0  0  0  0  0  0
    7.1981    4.6438   36.5056 H   0  0  0  0  0  0  0  0  0  0  0  0
    7.3490    2.7900   34.4957 C   0  0  0  0  0  0  0  0  0  0  0  0
    7.8195    1.6172   33.9261 C   0  0  0  0  0  0  0  0  0  0  0  0
    7.5649    0.6589   34.3836 H   0  0  0  0  0  0  0  0  0  0  0  0
    8.6874    1.6038   32.8131 C   0  0  0  0  0  0  0  0  0  0  0  0
    9.1993    0.3908   32.2813 C   0  0  0  0  0  0  0  0  0  0  0  0
    8.8845   -0.5571   32.7255 H   0  0  0  0  0  0  0  0  0  0  0  0
   10.1054    0.4064   31.2462 C   0  0  0  0  0  0  0  0  0  0  0  0
   10.5141   -0.5296   30.8595 H   0  0  0  0  0  0  0  0  0  0  0  0
   10.5370    1.6396   30.7027 C   0  0  0  0  0  0  0  0  0  0  0  0
   11.2839    1.6412   29.9049 H   0  0  0  0  0  0  0  0  0  0  0  0
   10.0382    2.8320   31.1781 C   0  0  0  0  0  0  0  0  0  0  0  0
   10.3780    3.7805   30.7570 H   0  0  0  0  0  0  0  0  0  0  0  0
    9.1005    2.8450   32.2409 C   0  0  0  0  0  0  0  0  0  0  0  0
    8.5736    4.0495   32.7791 C   0  0  0  0  0  0  0  0  0  0  0  0
    7.7283    4.0160   33.8690 C   0  0  0  0  0  0  0  0  0  0  0  0
    7.0645    5.0670   30.7884 O   0  0  0  0  0  0  0  0  0  0  0  0
    6.2771    5.5815   30.5342 H   0  0  0  0  0  0  0  0  0  0  0  0
    5.4097    7.3092   24.8437 N   0  0  0  0  0  0  0  0  0  0  0  0
    6.7676    6.7492   27.1396 N   0  0  0  0  0  0  0  0  0  0  0  0
    4.8130    7.5611   23.5912 C   0  0  0  0  0  0  0  0  0  0  0  0
    3.5454    7.0296   23.3304 C   0  0  0  0  0  0  0  0  0  0  0  0
    3.0362    6.4592   24.1067 H   0  0  0  0  0  0  0  0  0  0  0  0
    2.9259    7.2822   22.1117 C   0  0  0  0  0  0  0  0  0  0  0  0
    1.9245    6.8916   21.9193 H   0  0  0  0  0  0  0  0  0  0  0  0
    3.5759    8.0404   21.1375 C   0  0  0  0  0  0  0  0  0  0  0  0
    3.0917    8.2284   20.1770 H   0  0  0  0  0  0  0  0  0  0  0  0
    4.8469    8.5569   21.3916 C   0  0  0  0  0  0  0  0  0  0  0  0
    5.3627    9.1404   20.6260 H   0  0  0  0  0  0  0  0  0  0  0  0
    5.4669    8.3249   22.6147 C   0  0  0  0  0  0  0  0  0  0  0  0
    6.4796    8.6927   22.7941 H   0  0  0  0  0  0  0  0  0  0  0  0
    6.0038    8.2620   25.4607 C   0  0  0  0  0  0  0  0  0  0  0  0
    6.0035    9.2867   25.0621 H   0  0  0  0  0  0  0  0  0  0  0  0
    6.6635    8.0264   26.7432 C   0  0  0  0  0  0  0  0  0  0  0  0
    7.1257    9.0748   27.5414 C   0  0  0  0  0  0  0  0  0  0  0  0
    7.0297   10.1080   27.2012 H   0  0  0  0  0  0  0  0  0  0  0  0
    7.6756    8.7848   28.7842 C   0  0  0  0  0  0  0  0  0  0  0  0
    7.9899    9.6022   29.4369 H   0  0  0  0  0  0  0  0  0  0  0  0
    7.8023    7.4515   29.1972 C   0  0  0  0  0  0  0  0  0  0  0  0
    7.3355    6.4715   28.3012 C   0  0  0  0  0  0  0  0  0  0  0  0
    7.4239    5.4172   28.5608 H   0  0  0  0  0  0  0  0  0  0  0  0
    8.4328    7.0664   30.4750 C   0  0  0  0  0  0  0  0  0  0  0  0
    9.4460    7.8479   31.0042 C   0  0  0  0  0  0  0  0  0  0  0  0
    9.7164    8.7841   30.5112 H   0  0  0  0  0  0  0  0  0  0  0  0
   10.2117    7.4502   32.1204 C   0  0  0  0  0  0  0  0  0  0  0  0
   11.2504    8.2651   32.6403 C   0  0  0  0  0  0  0  0  0  0  0  0
   11.4368    9.2405   32.1837 H   0  0  0  0  0  0  0  0  0  0  0  0
   12.0293    7.8238   33.6848 C   0  0  0  0  0  0  0  0  0  0  0  0
   12.8395    8.4477   34.0684 H   0  0  0  0  0  0  0  0  0  0  0  0
   11.8046    6.5426   34.2407 C   0  0  0  0  0  0  0  0  0  0  0  0
   12.4504    6.1883   35.0479 H   0  0  0  0  0  0  0  0  0  0  0  0
   10.7993    5.7308   33.7624 C   0  0  0  0  0  0  0  0  0  0  0  0
   10.6408    4.7374   34.1872 H   0  0  0  0  0  0  0  0  0  0  0  0
    9.9715    6.1660   32.6971 C   0  0  0  0  0  0  0  0  0  0  0  0
    8.8960    5.3757   32.1918 C   0  0  0  0  0  0  0  0  0  0  0  0
    8.1053    5.8422   31.1510 C   0  0  0  0  0  0  0  0  0  0  0  0
    4.3235    4.3202   30.5923 O   0  0  0  0  0  0  0  0  0  0  0  0
    3.6482    4.7904   31.1105 H   0  0  0  0  0  0  0  0  0  0  0  0
    7.3690    4.6742   24.9678 N   0  0  0  0  0  0  0  0  0  0  0  0
    6.1434    3.7748   27.2007 N   0  0  0  0  0  0  0  0  0  0  0  0
    7.9485    5.2108   23.8048 C   0  0  0  0  0  0  0  0  0  0  0  0
    7.1351    5.3846   22.6780 C   0  0  0  0  0  0  0  0  0  0  0  0
    6.0841    5.0939   22.7181 H   0  0  0  0  0  0  0  0  0  0  0  0
    7.6846    5.8772   21.4993 C   0  0  0  0  0  0  0  0  0  0  0  0
    7.0526    5.9886   20.6159 H   0  0  0  0  0  0  0  0  0  0  0  0
    9.0330    6.2299   21.4460 C   0  0  0  0  0  0  0  0  0  0  0  0
    9.4603    6.6234   20.5211 H   0  0  0  0  0  0  0  0  0  0  0  0
    9.8371    6.0865   22.5786 C   0  0  0  0  0  0  0  0  0  0  0  0
   10.8885    6.3794   22.5431 H   0  0  0  0  0  0  0  0  0  0  0  0
    9.3027    5.5753   23.7555 C   0  0  0  0  0  0  0  0  0  0  0  0
    9.9277    5.4900   24.6476 H   0  0  0  0  0  0  0  0  0  0  0  0
    8.0172    3.8727   25.7305 C   0  0  0  0  0  0  0  0  0  0  0  0
    9.0307    3.5282   25.4798 H   0  0  0  0  0  0  0  0  0  0  0  0
    7.3988    3.3638   26.9544 C   0  0  0  0  0  0  0  0  0  0  0  0
    8.0625    2.5107   27.8370 C   0  0  0  0  0  0  0  0  0  0  0  0
    9.0802    2.1787   27.6219 H   0  0  0  0  0  0  0  0  0  0  0  0
    7.4223    2.1186   29.0084 C   0  0  0  0  0  0  0  0  0  0  0  0
    7.9521    1.4919   29.7281 H   0  0  0  0  0  0  0  0  0  0  0  0
    6.1207    2.5574   29.2739 C   0  0  0  0  0  0  0  0  0  0  0  0
    5.5216    3.3717   28.2953 C   0  0  0  0  0  0  0  0  0  0  0  0
    4.4994    3.7199   28.4316 H   0  0  0  0  0  0  0  0  0  0  0  0
    5.3908    2.1870   30.4977 C   0  0  0  0  0  0  0  0  0  0  0  0
    5.5723    0.9516   31.0894 C   0  0  0  0  0  0  0  0  0  0  0  0
    6.2832    0.2471   30.6515 H   0  0  0  0  0  0  0  0  0  0  0  0
    4.8282    0.5277   32.2152 C   0  0  0  0  0  0  0  0  0  0  0  0
    5.0051   -0.7599   32.7842 C   0  0  0  0  0  0  0  0  0  0  0  0
    5.7601   -1.4273   32.3606 H   0  0  0  0  0  0  0  0  0  0  0  0
    4.2158   -1.1791   33.8313 C   0  0  0  0  0  0  0  0  0  0  0  0
    4.3417   -2.1810   34.2473 H   0  0  0  0  0  0  0  0  0  0  0  0
    3.2130   -0.3251   34.3453 C   0  0  0  0  0  0  0  0  0  0  0  0
    2.5656   -0.6808   35.1506 H   0  0  0  0  0  0  0  0  0  0  0  0
    3.0313    0.9397   33.8292 C   0  0  0  0  0  0  0  0  0  0  0  0
    2.2481    1.5910   34.2234 H   0  0  0  0  0  0  0  0  0  0  0  0
    3.8357    1.3994   32.7575 C   0  0  0  0  0  0  0  0  0  0  0  0
    3.6792    2.6975   32.1860 C   0  0  0  0  0  0  0  0  0  0  0  0
    4.4503    3.0786   31.1006 C   0  0  0  0  0  0  0  0  0  0  0  0
    5.5234    5.3833   25.8482 Zn  0  0  0  0  0  0  0  0  0  0  0  0
    5.1945    7.2479   30.5518 O   0  0  0  0  0  0  0  0  0  0  0  0
    5.8959    7.7116   31.0439 H   0  0  0  0  0  0  0  0  0  0  0  0
    3.9447    4.1627   24.9883 N   0  0  0  0  0  0  0  0  0  0  0  0
    3.7951    5.8087   27.1427 N   0  0  0  0  0  0  0  0  0  0  0  0
    4.0166    3.4219   23.7916 C   0  0  0  0  0  0  0  0  0  0  0  0
    5.1484    2.6334   23.5509 C   0  0  0  0  0  0  0  0  0  0  0  0
    5.9384    2.5856   24.3000 H   0  0  0  0  0  0  0  0  0  0  0  0
    5.2343    1.8865   22.3817 C   0  0  0  0  0  0  0  0  0  0  0  0
    6.1082    1.2560   22.2041 H   0  0  0  0  0  0  0  0  0  0  0  0
    4.2090    1.9396   21.4364 C   0  0  0  0  0  0  0  0  0  0  0  0
    4.2854    1.3613   20.5132 H   0  0  0  0  0  0  0  0  0  0  0  0
    3.0875    2.7358   21.6692 C   0  0  0  0  0  0  0  0  0  0  0  0
    2.2894    2.7883   20.9255 H   0  0  0  0  0  0  0  0  0  0  0  0
    2.9842    3.4730   22.8443 C   0  0  0  0  0  0  0  0  0  0  0  0
    2.1195    4.1198   23.0102 H   0  0  0  0  0  0  0  0  0  0  0  0
    2.8553    4.1891   25.6634 C   0  0  0  0  0  0  0  0  0  0  0  0
    1.9842    3.5859   25.3691 H   0  0  0  0  0  0  0  0  0  0  0  0
    2.7515    5.0073   26.8706 C   0  0  0  0  0  0  0  0  0  0  0  0
    1.6494    4.9409   27.7230 C   0  0  0  0  0  0  0  0  0  0  0  0
    0.8091    4.2848   27.4873 H   0  0  0  0  0  0  0  0  0  0  0  0
    1.6556    5.6918   28.8929 C   0  0  0  0  0  0  0  0  0  0  0  0
    0.8195    5.6032   29.5895 H   0  0  0  0  0  0  0  0  0  0  0  0
    2.7417    6.5276   29.1841 C   0  0  0  0  0  0  0  0  0  0  0  0
    3.7838    6.5516   28.2373 C   0  0  0  0  0  0  0  0  0  0  0  0
    4.6437    7.1984   28.3978 H   0  0  0  0  0  0  0  0  0  0  0  0
    2.7900    7.3490   30.4077 C   0  0  0  0  0  0  0  0  0  0  0  0
    1.6171    7.8192   30.9774 C   0  0  0  0  0  0  0  0  0  0  0  0
    0.6589    7.5643   30.5200 H   0  0  0  0  0  0  0  0  0  0  0  0
    1.6036    8.6874   32.0901 C   0  0  0  0  0  0  0  0  0  0  0  0
    0.3906    9.1990   32.6220 C   0  0  0  0  0  0  0  0  0  0  0  0
   -0.5573    8.8837   32.1781 H   0  0  0  0  0  0  0  0  0  0  0  0
    0.4060   10.1054   33.6569 C   0  0  0  0  0  0  0  0  0  0  0  0
   -0.5301   10.5138   34.0437 H   0  0  0  0  0  0  0  0  0  0  0  0
    1.6392   10.5375   34.2001 C   0  0  0  0  0  0  0  0  0  0  0  0
    1.6407   11.2846   34.9977 H   0  0  0  0  0  0  0  0  0  0  0  0
    2.8317   10.0389   33.7247 C   0  0  0  0  0  0  0  0  0  0  0  0
    3.7801   10.3791   34.1456 H   0  0  0  0  0  0  0  0  0  0  0  0
    2.8448    9.1009   32.6621 C   0  0  0  0  0  0  0  0  0  0  0  0
    4.0494    8.5740   32.1241 C   0  0  0  0  0  0  0  0  0  0  0  0
    4.0160    7.7286   31.0343 C   0  0  0  0  0  0  0  0  0  0  0  0
    5.0668    7.0647   34.1145 O   0  0  0  0  0  0  0  0  0  0  0  0
    5.5813    6.2774   34.3693 H   0  0  0  0  0  0  0  0  0  0  0  0
    7.3096    5.4104   40.0600 N   0  0  0  0  0  0  0  0  0  0  0  0
    6.7492    6.7676   37.7639 N   0  0  0  0  0  0  0  0  0  0  0  0
    7.5615    4.8142   41.3128 C   0  0  0  0  0  0  0  0  0  0  0  0
    7.0297    3.5469   41.5742 C   0  0  0  0  0  0  0  0  0  0  0  0
    6.4590    3.0375   40.7983 H   0  0  0  0  0  0  0  0  0  0  0  0
    7.2821    2.9281   42.7933 C   0  0  0  0  0  0  0  0  0  0  0  0
    6.8910    1.9269   42.9863 H   0  0  0  0  0  0  0  0  0  0  0  0
    8.0406    3.5784   43.7671 C   0  0  0  0  0  0  0  0  0  0  0  0
    8.2283    3.0947   44.7280 H   0  0  0  0  0  0  0  0  0  0  0  0
    8.5576    4.8490   43.5122 C   0  0  0  0  0  0  0  0  0  0  0  0
    9.1411    5.3651   44.2776 H   0  0  0  0  0  0  0  0  0  0  0  0
    8.3256    5.4684   42.2889 C   0  0  0  0  0  0  0  0  0  0  0  0
    8.6938    6.4809   42.1088 H   0  0  0  0  0  0  0  0  0  0  0  0
    8.2622    6.0045   39.4428 C   0  0  0  0  0  0  0  0  0  0  0  0
    9.2870    6.0044   39.8413 H   0  0  0  0  0  0  0  0  0  0  0  0
    8.0264    6.6639   38.1602 C   0  0  0  0  0  0  0  0  0  0  0  0
    9.0746    7.1263   37.3620 C   0  0  0  0  0  0  0  0  0  0  0  0
   10.1079    7.0306   37.7021 H   0  0  0  0  0  0  0  0  0  0  0  0
    8.7845    7.6761   36.1191 C   0  0  0  0  0  0  0  0  0  0  0  0
    9.6018    7.9906   35.4664 H   0  0  0  0  0  0  0  0  0  0  0  0
    7.4512    7.8024   35.7062 C   0  0  0  0  0  0  0  0  0  0  0  0
    6.4713    7.3354   36.6021 C   0  0  0  0  0  0  0  0  0  0  0  0
    5.4170    7.4234   36.3426 H   0  0  0  0  0  0  0  0  0  0  0  0
    7.0660    8.4331   34.4284 C   0  0  0  0  0  0  0  0  0  0  0  0
    7.8475    9.4466   33.8995 C   0  0  0  0  0  0  0  0  0  0  0  0
    8.7835    9.7169   34.3927 H   0  0  0  0  0  0  0  0  0  0  0  0
    7.4498   10.2124   32.7834 C   0  0  0  0  0  0  0  0  0  0  0  0
    8.2647   11.2511   32.2638 C   0  0  0  0  0  0  0  0  0  0  0  0
    9.2400   11.4376   32.7205 H   0  0  0  0  0  0  0  0  0  0  0  0
    7.8236   12.0301   31.2192 C   0  0  0  0  0  0  0  0  0  0  0  0
    8.4474   12.8404   30.8358 H   0  0  0  0  0  0  0  0  0  0  0  0
    6.5425   11.8053   30.6631 C   0  0  0  0  0  0  0  0  0  0  0  0
    6.1882   12.4512   29.8559 H   0  0  0  0  0  0  0  0  0  0  0  0
    5.7307   10.8000   31.1412 C   0  0  0  0  0  0  0  0  0  0  0  0
    4.7374   10.6414   30.7161 H   0  0  0  0  0  0  0  0  0  0  0  0
    6.1658    9.9721   32.2065 C   0  0  0  0  0  0  0  0  0  0  0  0
    5.3755    8.8964   32.7115 C   0  0  0  0  0  0  0  0  0  0  0  0
    5.8419    8.1056   33.7523 C   0  0  0  0  0  0  0  0  0  0  0  0
  1 44  1  0  0  0  0
  1  4  1  0  0  0  0
  1205  1  0  0  0  0
  3  2  1  0  0  0  0
  4  6  1  0  0  0  0
  5 19  1  0  0  0  0
  5  1  1  0  0  0  0
  6 15  2  0  0  0  0
  6  7  1  0  0  0  0
  7  9  2  0  0  0  0
  8  7  1  0  0  0  0
  9 11  1  0  0  0  0
  9 10  1  0  0  0  0
 11 12  1  0  0  0  0
 13 14  1  0  0  0  0
 13 11  2  0  0  0  0
 15 13  1  0  0  0  0
 16 15  1  0  0  0  0
 17 18  1  0  0  0  0
 17  4  1  0  0  0  0
 19 17  2  0  0  0  0
 20 21  1  0  0  0  0
 20 19  1  0  0  0  0
 22 20  2  0  0  0  0
 23 22  1  0  0  0  0
 24 22  1  0  0  0  0
 24 25  2  0  0  0  0
 25  5  1  0  0  0  0
 26 25  1  0  0  0  0
 27 24  1  0  0  0  0
 28 29  1  0  0  0  0
 28 27  2  0  0  0  0
 30 28  1  0  0  0  0
 31 32  1  0  0  0  0
 31 30  2  0  0  0  0
 33 31  1  0  0  0  0
 34 33  1  0  0  0  0
 35 33  2  0  0  0  0
 35 37  1  0  0  0  0
 36 35  1  0  0  0  0
 37 39  2  0  0  0  0
 38 37  1  0  0  0  0
 39 30  1  0  0  0  0
 39 40  1  0  0  0  0
 40 41  2  0  0  0  0
 41  2  1  0  0  0  0
 41 27  1  0  0  0  0
 43 42  1  0  0  0  0
 44 46  1  0  0  0  0
 45 59  1  0  0  0  0
 45  1  1  0  0  0  0
 46 47  2  0  0  0  0
 46 55  1  0  0  0  0
 47 49  1  0  0  0  0
 48 47  1  0  0  0  0
 49 50  1  0  0  0  0
 49 51  2  0  0  0  0
 51 52  1  0  0  0  0
 53 51  1  0  0  0  0
 53 54  1  0  0  0  0
 55 53  2  0  0  0  0
 56 55  1  0  0  0  0
 57 58  1  0  0  0  0
 57 44  1  0  0  0  0
 59 57  2  0  0  0  0
 60 61  1  0  0  0  0
 60 59  1  0  0  0  0
 62 60  2  0  0  0  0
 63 62  1  0  0  0  0
 64 62  1  0  0  0  0
 64 65  2  0  0  0  0
 65 45  1  0  0  0  0
 66 65  1  0  0  0  0
 67 64  1  0  0  0  0
 68 69  1  0  0  0  0
 68 67  1  0  0  0  0
 70 68  2  0  0  0  0
 71 72  1  0  0  0  0
 71 70  1  0  0  0  0
 73 71  2  0  0  0  0
 74 73  1  0  0  0  0
 75 77  2  0  0  0  0
 75 73  1  0  0  0  0
 76 75  1  0  0  0  0
 77 79  1  0  0  0  0
 78 77  1  0  0  0  0
 79 80  2  0  0  0  0
 79 70  1  0  0  0  0
 80 81  1  0  0  0  0
 81 42  1  0  0  0  0
 81 67  2  0  0  0  0
 82121  1  0  0  0  0
 83 82  1  0  0  0  0
 84 97  1  0  0  0  0
 84162  1  0  0  0  0
 85105  1  0  0  0  0
 86 84  1  0  0  0  0
 87 86  1  0  0  0  0
 87 88  1  0  0  0  0
 89 87  2  0  0  0  0
 90 89  1  0  0  0  0
 91 93  2  0  0  0  0
 91 89  1  0  0  0  0
 92 91  1  0  0  0  0
 93 95  1  0  0  0  0
 94 93  1  0  0  0  0
 95 96  1  0  0  0  0
 95 86  2  0  0  0  0
 97 99  2  0  0  0  0
 98 97  1  0  0  0  0
 99 85  1  0  0  0  0
 99100  1  0  0  0  0
100102  2  0  0  0  0
101100  1  0  0  0  0
102104  1  0  0  0  0
102103  1  0  0  0  0
104107  1  0  0  0  0
105106  1  0  0  0  0
105104  2  0  0  0  0
107108  2  0  0  0  0
107121  1  0  0  0  0
108110  1  0  0  0  0
109108  1  0  0  0  0
110111  2  0  0  0  0
110119  1  0  0  0  0
111113  1  0  0  0  0
112111  1  0  0  0  0
113114  1  0  0  0  0
113115  2  0  0  0  0
115116  1  0  0  0  0
117118  1  0  0  0  0
117115  1  0  0  0  0
119117  2  0  0  0  0
120119  1  0  0  0  0
120 80  1  0  0  0  0
121120  2  0  0  0  0
122161  1  0  0  0  0
122123  1  0  0  0  0
124137  1  0  0  0  0
124162  1  0  0  0  0
125145  1  0  0  0  0
126124  1  0  0  0  0
127128  1  0  0  0  0
127126  2  0  0  0  0
129127  1  0  0  0  0
130129  1  0  0  0  0
131129  2  0  0  0  0
131133  1  0  0  0  0
132131  1  0  0  0  0
133135  2  0  0  0  0
134133  1  0  0  0  0
135126  1  0  0  0  0
135136  1  0  0  0  0
137139  2  0  0  0  0
138137  1  0  0  0  0
139125  1  0  0  0  0
139140  1  0  0  0  0
140142  2  0  0  0  0
141140  1  0  0  0  0
142144  1  0  0  0  0
142143  1  0  0  0  0
144147  1  0  0  0  0
145146  1  0  0  0  0
145144  2  0  0  0  0
147148  2  0  0  0  0
147161  1  0  0  0  0
148150  1  0  0  0  0
149148  1  0  0  0  0
150159  2  0  0  0  0
150151  1  0  0  0  0
151153  2  0  0  0  0
152151  1  0  0  0  0
153154  1  0  0  0  0
153155  1  0  0  0  0
155156  1  0  0  0  0
157158  1  0  0  0  0
157155  2  0  0  0  0
159157  1  0  0  0  0
160 40  1  0  0  0  0
160159  1  0  0  0  0
161160  2  0  0  0  0
162 85  1  0  0  0  0
162166  1  0  0  0  0
162125  1  0  0  0  0
163202  1  0  0  0  0
163164  1  0  0  0  0
165178  1  0  0  0  0
165162  1  0  0  0  0
166186  1  0  0  0  0
167165  1  0  0  0  0
168167  1  0  0  0  0
168169  1  0  0  0  0
170168  2  0  0  0  0
171170  1  0  0  0  0
172174  2  0  0  0  0
172170  1  0  0  0  0
173172  1  0  0  0  0
174176  1  0  0  0  0
175174  1  0  0  0  0
176177  1  0  0  0  0
176167  2  0  0  0  0
178180  2  0  0  0  0
179178  1  0  0  0  0
180166  1  0  0  0  0
180181  1  0  0  0  0
181183  2  0  0  0  0
182181  1  0  0  0  0
183185  1  0  0  0  0
183184  1  0  0  0  0
185188  1  0  0  0  0
186187  1  0  0  0  0
186185  2  0  0  0  0
188189  2  0  0  0  0
188202  1  0  0  0  0
189191  1  0  0  0  0
190189  1  0  0  0  0
191192  2  0  0  0  0
191200  1  0  0  0  0
192194  1  0  0  0  0
193192  1  0  0  0  0
194195  1  0  0  0  0
194196  2  0  0  0  0
196197  1  0  0  0  0
198199  1  0  0  0  0
198196  1  0  0  0  0
200198  2  0  0  0  0
201200  1  0  0  0  0
201241  1  0  0  0  0
202201  2  0  0  0  0
203204  1  0  0  0  0
205207  1  0  0  0  0
206220  1  0  0  0  0
206  1  1  0  0  0  0
207208  2  0  0  0  0
207216  1  0  0  0  0
208210  1  0  0  0  0
209208  1  0  0  0  0
210211  1  0  0  0  0
210212  2  0  0  0  0
212213  1  0  0  0  0
214212  1  0  0  0  0
214215  1  0  0  0  0
216214  2  0  0  0  0
217216  1  0  0  0  0
218219  1  0  0  0  0
218205  1  0  0  0  0
220218  2  0  0  0  0
221222  1  0  0  0  0
221220  1  0  0  0  0
223221  2  0  0  0  0
224223  1  0  0  0  0
225223  1  0  0  0  0
225226  2  0  0  0  0
226206  1  0  0  0  0
227226  1  0  0  0  0
228225  1  0  0  0  0
229230  1  0  0  0  0
229228  1  0  0  0  0
231229  2  0  0  0  0
232233  1  0  0  0  0
232231  1  0  0  0  0
234232  2  0  0  0  0
235234  1  0  0  0  0
236238  2  0  0  0  0
236234  1  0  0  0  0
237236  1  0  0  0  0
238240  1  0  0  0  0
239238  1  0  0  0  0
240241  2  0  0  0  0
240231  1  0  0  0  0
241242  1  0  0  0  0
242203  1  0  0  0  0
242228  2  0  0  0  0
M  END
