
 OpenBabel04152109423D

260291  0  0  0  0  0  0  0  0999 V2000
    5.6052    5.7373   38.7353 Zn  0  0  0  0  0  0  0  0  0  0  0  0
    3.8570    3.5758   34.1620 O   0  0  0  0  0  0  0  0  0  0  0  0
    4.4922    2.3273   34.3694 C   0  0  0  0  0  0  0  0  0  0  0  0
    4.6657    7.5337   39.5237 N   0  0  0  0  0  0  0  0  0  0  0  0
    3.7612    5.8698   37.5363 N   0  0  0  0  0  0  0  0  0  0  0  0
    5.2180    8.4383   40.4551 C   0  0  0  0  0  0  0  0  0  0  0  0
    5.4638    8.0231   41.7677 C   0  0  0  0  0  0  0  0  0  0  0  0
    5.2263    7.0040   42.0701 H   0  0  0  0  0  0  0  0  0  0  0  0
    5.9677    8.9339   42.6908 C   0  0  0  0  0  0  0  0  0  0  0  0
    6.1222    8.6175   43.7248 H   0  0  0  0  0  0  0  0  0  0  0  0
    6.2711   10.2405   42.3065 C   0  0  0  0  0  0  0  0  0  0  0  0
    6.6723   10.9474   43.0358 H   0  0  0  0  0  0  0  0  0  0  0  0
    6.0600   10.6418   40.9874 C   0  0  0  0  0  0  0  0  0  0  0  0
    6.3057   11.6603   40.6787 H   0  0  0  0  0  0  0  0  0  0  0  0
    5.5272    9.7486   40.0628 C   0  0  0  0  0  0  0  0  0  0  0  0
    5.3702   10.0558   39.0253 H   0  0  0  0  0  0  0  0  0  0  0  0
    3.6774    7.9069   38.8023 C   0  0  0  0  0  0  0  0  0  0  0  0
    3.1900    8.8803   38.9606 H   0  0  0  0  0  0  0  0  0  0  0  0
    3.1636    7.0596   37.7289 C   0  0  0  0  0  0  0  0  0  0  0  0
    2.1318    7.4941   36.9016 C   0  0  0  0  0  0  0  0  0  0  0  0
    1.6779    8.4751   37.0543 H   0  0  0  0  0  0  0  0  0  0  0  0
    1.7128    6.6707   35.8669 C   0  0  0  0  0  0  0  0  0  0  0  0
    0.9412    7.0242   35.1810 H   0  0  0  0  0  0  0  0  0  0  0  0
    2.2835    5.4023   35.6893 C   0  0  0  0  0  0  0  0  0  0  0  0
    3.3346    5.0647   36.5707 C   0  0  0  0  0  0  0  0  0  0  0  0
    3.8431    4.1047   36.4823 H   0  0  0  0  0  0  0  0  0  0  0  0
    1.7326    4.5037   34.6544 C   0  0  0  0  0  0  0  0  0  0  0  0
    0.3710    4.5524   34.4092 C   0  0  0  0  0  0  0  0  0  0  0  0
   -0.2628    5.2114   35.0064 H   0  0  0  0  0  0  0  0  0  0  0  0
   -0.2564    3.7332   33.4497 C   0  0  0  0  0  0  0  0  0  0  0  0
   -1.6599    3.7800   33.2432 C   0  0  0  0  0  0  0  0  0  0  0  0
   -2.2622    4.4545   33.8569 H   0  0  0  0  0  0  0  0  0  0  0  0
   -2.2523    2.9849   32.2924 C   0  0  0  0  0  0  0  0  0  0  0  0
   -3.3334    3.0172   32.1417 H   0  0  0  0  0  0  0  0  0  0  0  0
   -1.4586    2.1144   31.5116 C   0  0  0  0  0  0  0  0  0  0  0  0
   -1.9364    1.4797   30.7617 H   0  0  0  0  0  0  0  0  0  0  0  0
   -0.0946    2.0477   31.6917 C   0  0  0  0  0  0  0  0  0  0  0  0
    0.4997    1.3612   31.0861 H   0  0  0  0  0  0  0  0  0  0  0  0
    0.5451    2.8471   32.6721 C   0  0  0  0  0  0  0  0  0  0  0  0
    1.9592    2.8111   32.8889 C   0  0  0  0  0  0  0  0  0  0  0  0
    2.5257    3.5907   33.8873 C   0  0  0  0  0  0  0  0  0  0  0  0
    8.6385    4.5261   34.7532 O   0  0  0  0  0  0  0  0  0  0  0  0
    9.7846    5.3570   34.8053 C   0  0  0  0  0  0  0  0  0  0  0  0
    5.0714    4.3090   40.2414 N   0  0  0  0  0  0  0  0  0  0  0  0
    6.2893    3.8820   37.8772 N   0  0  0  0  0  0  0  0  0  0  0  0
    4.5001    4.6366   41.4854 C   0  0  0  0  0  0  0  0  0  0  0  0
    3.2479    5.2615   41.5064 C   0  0  0  0  0  0  0  0  0  0  0  0
    2.7199    5.4371   40.5673 H   0  0  0  0  0  0  0  0  0  0  0  0
    2.6793    5.6164   42.7244 C   0  0  0  0  0  0  0  0  0  0  0  0
    1.6910    6.0801   42.7484 H   0  0  0  0  0  0  0  0  0  0  0  0
    3.3692    5.3849   43.9163 C   0  0  0  0  0  0  0  0  0  0  0  0
    2.9245    5.6776   44.8698 H   0  0  0  0  0  0  0  0  0  0  0  0
    4.6262    4.7813   43.8892 C   0  0  0  0  0  0  0  0  0  0  0  0
    5.1715    4.6088   44.8196 H   0  0  0  0  0  0  0  0  0  0  0  0
    5.1941    4.3950   42.6777 C   0  0  0  0  0  0  0  0  0  0  0  0
    6.1932    3.9536   42.6487 H   0  0  0  0  0  0  0  0  0  0  0  0
    5.5726    3.1521   40.0343 C   0  0  0  0  0  0  0  0  0  0  0  0
    5.5158    2.3515   40.7860 H   0  0  0  0  0  0  0  0  0  0  0  0
    6.2335    2.8700   38.7593 C   0  0  0  0  0  0  0  0  0  0  0  0
    6.8078    1.6337   38.4763 C   0  0  0  0  0  0  0  0  0  0  0  0
    6.7730    0.8273   39.2121 H   0  0  0  0  0  0  0  0  0  0  0  0
    7.4403    1.4578   37.2519 C   0  0  0  0  0  0  0  0  0  0  0  0
    7.9261    0.5055   37.0307 H   0  0  0  0  0  0  0  0  0  0  0  0
    7.4672    2.4946   36.3073 C   0  0  0  0  0  0  0  0  0  0  0  0
    6.8721    3.7124   36.7001 C   0  0  0  0  0  0  0  0  0  0  0  0
    6.8698    4.5680   36.0251 H   0  0  0  0  0  0  0  0  0  0  0  0
    8.0129    2.2628   34.9561 C   0  0  0  0  0  0  0  0  0  0  0  0
    7.8700    1.0089   34.3900 C   0  0  0  0  0  0  0  0  0  0  0  0
    7.3374    0.2248   34.9332 H   0  0  0  0  0  0  0  0  0  0  0  0
    8.3799    0.6949   33.1133 C   0  0  0  0  0  0  0  0  0  0  0  0
    8.2419   -0.6033   32.5566 C   0  0  0  0  0  0  0  0  0  0  0  0
    7.7140   -1.3708   33.1281 H   0  0  0  0  0  0  0  0  0  0  0  0
    8.7907   -0.8996   31.3315 C   0  0  0  0  0  0  0  0  0  0  0  0
    8.7087   -1.9081   30.9203 H   0  0  0  0  0  0  0  0  0  0  0  0
    9.4926    0.0983   30.6167 C   0  0  0  0  0  0  0  0  0  0  0  0
    9.9580   -0.1554   29.6608 H   0  0  0  0  0  0  0  0  0  0  0  0
    9.6120    1.3757   31.1179 C   0  0  0  0  0  0  0  0  0  0  0  0
   10.1591    2.1361   30.5583 H   0  0  0  0  0  0  0  0  0  0  0  0
    9.0599    1.7112   32.3808 C   0  0  0  0  0  0  0  0  0  0  0  0
    9.1497    3.0309   32.9251 C   0  0  0  0  0  0  0  0  0  0  0  0
    8.6580    3.2922   34.1942 C   0  0  0  0  0  0  0  0  0  0  0  0
    7.6712    4.7030   30.9763 O   0  0  0  0  0  0  0  0  0  0  0  0
    6.7421    4.3101   31.9620 C   0  0  0  0  0  0  0  0  0  0  0  0
    6.1022    7.6194   25.2712 N   0  0  0  0  0  0  0  0  0  0  0  0
    7.1911    6.5578   27.5344 N   0  0  0  0  0  0  0  0  0  0  0  0
    5.5380    8.1687   24.0949 C   0  0  0  0  0  0  0  0  0  0  0  0
    4.1810    8.5096   24.0807 C   0  0  0  0  0  0  0  0  0  0  0  0
    3.5901    8.4066   24.9911 H   0  0  0  0  0  0  0  0  0  0  0  0
    3.6146    9.0475   22.9284 C   0  0  0  0  0  0  0  0  0  0  0  0
    2.5623    9.3410   22.9273 H   0  0  0  0  0  0  0  0  0  0  0  0
    4.3893    9.2330   21.7825 C   0  0  0  0  0  0  0  0  0  0  0  0
    3.9407    9.6518   20.8793 H   0  0  0  0  0  0  0  0  0  0  0  0
    5.7432    8.9026   21.8037 C   0  0  0  0  0  0  0  0  0  0  0  0
    6.3588    9.0608   20.9153 H   0  0  0  0  0  0  0  0  0  0  0  0
    6.3233    8.3793   22.9572 C   0  0  0  0  0  0  0  0  0  0  0  0
    7.3797    8.1064   22.9716 H   0  0  0  0  0  0  0  0  0  0  0  0
    7.0702    8.2351   25.8334 C   0  0  0  0  0  0  0  0  0  0  0  0
    7.4522    9.1876   25.4354 H   0  0  0  0  0  0  0  0  0  0  0  0
    7.6966    7.6992   27.0402 C   0  0  0  0  0  0  0  0  0  0  0  0
    8.7791    8.3324   27.6483 C   0  0  0  0  0  0  0  0  0  0  0  0
    9.1579    9.2767   27.2514 H   0  0  0  0  0  0  0  0  0  0  0  0
    9.3777    7.7315   28.7483 C   0  0  0  0  0  0  0  0  0  0  0  0
   10.2249    8.2230   29.2304 H   0  0  0  0  0  0  0  0  0  0  0  0
    8.9071    6.4992   29.2289 C   0  0  0  0  0  0  0  0  0  0  0  0
    7.7604    5.9871   28.5854 C   0  0  0  0  0  0  0  0  0  0  0  0
    7.3188    5.0612   28.9432 H   0  0  0  0  0  0  0  0  0  0  0  0
    9.6407    5.7474   30.2658 C   0  0  0  0  0  0  0  0  0  0  0  0
   11.0133    5.9003   30.3390 C   0  0  0  0  0  0  0  0  0  0  0  0
   11.5204    6.5753   29.6461 H   0  0  0  0  0  0  0  0  0  0  0  0
   11.8157    5.1657   31.2348 C   0  0  0  0  0  0  0  0  0  0  0  0
   13.2265    5.3131   31.2615 C   0  0  0  0  0  0  0  0  0  0  0  0
   13.6953    6.0411   30.5946 H   0  0  0  0  0  0  0  0  0  0  0  0
   13.9931    4.5472   32.1065 C   0  0  0  0  0  0  0  0  0  0  0  0
   15.0791    4.6598   32.1228 H   0  0  0  0  0  0  0  0  0  0  0  0
   13.3719    3.5979   32.9476 C   0  0  0  0  0  0  0  0  0  0  0  0
   13.9875    2.9759   33.6015 H   0  0  0  0  0  0  0  0  0  0  0  0
   12.0029    3.4401   32.9471 C   0  0  0  0  0  0  0  0  0  0  0  0
   11.5443    2.6908   33.5949 H   0  0  0  0  0  0  0  0  0  0  0  0
   11.1835    4.2276   32.1003 C   0  0  0  0  0  0  0  0  0  0  0  0
    9.7581    4.0850   32.0697 C   0  0  0  0  0  0  0  0  0  0  0  0
    9.0038    4.8157   31.1615 C   0  0  0  0  0  0  0  0  0  0  0  0
    3.5767    3.8562   30.7427 O   0  0  0  0  0  0  0  0  0  0  0  0
    2.3280    4.4913   30.5355 C   0  0  0  0  0  0  0  0  0  0  0  0
    7.5330    4.6654   25.3797 N   0  0  0  0  0  0  0  0  0  0  0  0
    5.8698    3.7609   27.3676 N   0  0  0  0  0  0  0  0  0  0  0  0
    8.4371    5.2179   24.4479 C   0  0  0  0  0  0  0  0  0  0  0  0
    8.0218    5.4621   23.1351 C   0  0  0  0  0  0  0  0  0  0  0  0
    7.0031    5.2230   22.8326 H   0  0  0  0  0  0  0  0  0  0  0  0
    8.9322    5.9666   22.2118 C   0  0  0  0  0  0  0  0  0  0  0  0
    8.6158    6.1198   21.1775 H   0  0  0  0  0  0  0  0  0  0  0  0
   10.2382    6.2721   22.5961 C   0  0  0  0  0  0  0  0  0  0  0  0
   10.9448    6.6736   21.8666 H   0  0  0  0  0  0  0  0  0  0  0  0
   10.6396    6.0625   23.9154 C   0  0  0  0  0  0  0  0  0  0  0  0
   11.6577    6.3097   24.2241 H   0  0  0  0  0  0  0  0  0  0  0  0
    9.7469    5.5292   24.8403 C   0  0  0  0  0  0  0  0  0  0  0  0
   10.0541    5.3733   25.8779 H   0  0  0  0  0  0  0  0  0  0  0  0
    7.9071    3.6778   26.1017 C   0  0  0  0  0  0  0  0  0  0  0  0
    8.8808    3.1910   25.9436 H   0  0  0  0  0  0  0  0  0  0  0  0
    7.0599    3.1637   27.1751 C   0  0  0  0  0  0  0  0  0  0  0  0
    7.4948    2.1322   28.0025 C   0  0  0  0  0  0  0  0  0  0  0  0
    8.4761    1.6788   27.8498 H   0  0  0  0  0  0  0  0  0  0  0  0
    6.6717    1.7129   29.0373 C   0  0  0  0  0  0  0  0  0  0  0  0
    7.0255    0.9416   29.7233 H   0  0  0  0  0  0  0  0  0  0  0  0
    5.4031    2.2831   29.2148 C   0  0  0  0  0  0  0  0  0  0  0  0
    5.0650    3.3340   28.3334 C   0  0  0  0  0  0  0  0  0  0  0  0
    4.1047    3.8420   28.4216 H   0  0  0  0  0  0  0  0  0  0  0  0
    4.5047    1.7320   30.2498 C   0  0  0  0  0  0  0  0  0  0  0  0
    4.5537    0.3705   30.4950 C   0  0  0  0  0  0  0  0  0  0  0  0
    5.2128   -0.2632   29.8977 H   0  0  0  0  0  0  0  0  0  0  0  0
    3.7346   -0.2572   31.4545 C   0  0  0  0  0  0  0  0  0  0  0  0
    3.7817   -1.6606   31.6608 C   0  0  0  0  0  0  0  0  0  0  0  0
    4.4563   -2.2629   31.0471 H   0  0  0  0  0  0  0  0  0  0  0  0
    2.9866   -2.2533   32.6116 C   0  0  0  0  0  0  0  0  0  0  0  0
    3.0192   -3.3344   32.7622 H   0  0  0  0  0  0  0  0  0  0  0  0
    2.1161   -1.4598   33.3924 C   0  0  0  0  0  0  0  0  0  0  0  0
    1.4814   -1.9377   34.1424 H   0  0  0  0  0  0  0  0  0  0  0  0
    2.0491   -0.0958   33.2125 C   0  0  0  0  0  0  0  0  0  0  0  0
    1.3626    0.4984   33.8181 H   0  0  0  0  0  0  0  0  0  0  0  0
    2.8484    0.5441   32.2321 C   0  0  0  0  0  0  0  0  0  0  0  0
    2.8122    1.9582   32.0155 C   0  0  0  0  0  0  0  0  0  0  0  0
    3.5917    2.5250   31.0171 C   0  0  0  0  0  0  0  0  0  0  0  0
    5.7363    5.6046   26.1687 Zn  0  0  0  0  0  0  0  0  0  0  0  0
    4.5247    8.6363   30.1521 O   0  0  0  0  0  0  0  0  0  0  0  0
    5.3544    9.7833   30.0984 C   0  0  0  0  0  0  0  0  0  0  0  0
    4.3082    5.0704   24.6630 N   0  0  0  0  0  0  0  0  0  0  0  0
    3.8810    6.2886   27.0270 N   0  0  0  0  0  0  0  0  0  0  0  0
    4.6358    4.4984   23.4193 C   0  0  0  0  0  0  0  0  0  0  0  0
    5.2601    3.2459   23.3990 C   0  0  0  0  0  0  0  0  0  0  0  0
    5.4354    2.7184   24.3384 H   0  0  0  0  0  0  0  0  0  0  0  0
    5.6148    2.6764   22.1813 C   0  0  0  0  0  0  0  0  0  0  0  0
    6.0781    1.6879   22.1580 H   0  0  0  0  0  0  0  0  0  0  0  0
    5.3836    3.3658   20.9890 C   0  0  0  0  0  0  0  0  0  0  0  0
    5.6763    2.9204   20.0359 H   0  0  0  0  0  0  0  0  0  0  0  0
    4.7805    4.6230   21.0154 C   0  0  0  0  0  0  0  0  0  0  0  0
    4.6084    5.1679   20.0847 H   0  0  0  0  0  0  0  0  0  0  0  0
    4.3946    5.1919   22.2266 C   0  0  0  0  0  0  0  0  0  0  0  0
    3.9534    6.1910   22.2549 H   0  0  0  0  0  0  0  0  0  0  0  0
    3.1515    5.5722   24.8696 C   0  0  0  0  0  0  0  0  0  0  0  0
    2.3509    5.5153   24.1179 H   0  0  0  0  0  0  0  0  0  0  0  0
    2.8691    6.2327   26.1447 C   0  0  0  0  0  0  0  0  0  0  0  0
    1.6326    6.8068   26.4276 C   0  0  0  0  0  0  0  0  0  0  0  0
    0.8264    6.7721   25.6917 H   0  0  0  0  0  0  0  0  0  0  0  0
    1.4564    7.4392   27.6521 C   0  0  0  0  0  0  0  0  0  0  0  0
    0.5040    7.9249   27.8731 H   0  0  0  0  0  0  0  0  0  0  0  0
    2.4931    7.4662   28.5967 C   0  0  0  0  0  0  0  0  0  0  0  0
    3.7111    6.8713   28.2041 C   0  0  0  0  0  0  0  0  0  0  0  0
    4.5667    6.8694   28.8792 H   0  0  0  0  0  0  0  0  0  0  0  0
    2.2611    8.0116   29.9480 C   0  0  0  0  0  0  0  0  0  0  0  0
    1.0071    7.8686   30.5139 C   0  0  0  0  0  0  0  0  0  0  0  0
    0.2230    7.3361   29.9705 H   0  0  0  0  0  0  0  0  0  0  0  0
    0.6929    8.3783   31.7907 C   0  0  0  0  0  0  0  0  0  0  0  0
   -0.6053    8.2402   32.3472 C   0  0  0  0  0  0  0  0  0  0  0  0
   -1.3726    7.7121   31.7757 H   0  0  0  0  0  0  0  0  0  0  0  0
   -0.9018    8.7889   33.5723 C   0  0  0  0  0  0  0  0  0  0  0  0
   -1.9103    8.7068   33.9834 H   0  0  0  0  0  0  0  0  0  0  0  0
    0.0960    9.4907   34.2874 C   0  0  0  0  0  0  0  0  0  0  0  0
   -0.1579    9.9562   35.2432 H   0  0  0  0  0  0  0  0  0  0  0  0
    1.3735    9.6103   33.7863 C   0  0  0  0  0  0  0  0  0  0  0  0
    2.1337   10.1575   34.3460 H   0  0  0  0  0  0  0  0  0  0  0  0
    1.7091    9.0584   32.5234 C   0  0  0  0  0  0  0  0  0  0  0  0
    3.0289    9.1481   31.9793 C   0  0  0  0  0  0  0  0  0  0  0  0
    3.2905    8.6561   30.7104 C   0  0  0  0  0  0  0  0  0  0  0  0
    4.7008    7.6708   33.9287 O   0  0  0  0  0  0  0  0  0  0  0  0
    4.3089    6.7413   32.9429 C   0  0  0  0  0  0  0  0  0  0  0  0
    7.6203    6.1033   39.6324 N   0  0  0  0  0  0  0  0  0  0  0  0
    6.5579    7.1915   37.3691 N   0  0  0  0  0  0  0  0  0  0  0  0
    8.1700    5.5392   40.8084 C   0  0  0  0  0  0  0  0  0  0  0  0
    8.5107    4.1822   40.8228 C   0  0  0  0  0  0  0  0  0  0  0  0
    8.4072    3.5912   39.9125 H   0  0  0  0  0  0  0  0  0  0  0  0
    9.0489    3.6158   41.9749 C   0  0  0  0  0  0  0  0  0  0  0  0
    9.3421    2.5634   41.9761 H   0  0  0  0  0  0  0  0  0  0  0  0
    9.2353    4.3907   43.1206 C   0  0  0  0  0  0  0  0  0  0  0  0
    9.6542    3.9421   44.0237 H   0  0  0  0  0  0  0  0  0  0  0  0
    8.9055    5.7447   43.0992 C   0  0  0  0  0  0  0  0  0  0  0  0
    9.0643    6.3605   43.9873 H   0  0  0  0  0  0  0  0  0  0  0  0
    8.3816    6.3247   41.9459 C   0  0  0  0  0  0  0  0  0  0  0  0
    8.1095    7.3813   41.9312 H   0  0  0  0  0  0  0  0  0  0  0  0
    8.2356    7.0714   39.0699 C   0  0  0  0  0  0  0  0  0  0  0  0
    9.1881    7.4537   39.4676 H   0  0  0  0  0  0  0  0  0  0  0  0
    7.6993    7.6974   37.8630 C   0  0  0  0  0  0  0  0  0  0  0  0
    8.3320    8.7799   37.2545 C   0  0  0  0  0  0  0  0  0  0  0  0
    9.2763    9.1591   37.6512 H   0  0  0  0  0  0  0  0  0  0  0  0
    7.7307    9.3783   36.1547 C   0  0  0  0  0  0  0  0  0  0  0  0
    8.2217   10.2256   35.6724 H   0  0  0  0  0  0  0  0  0  0  0  0
    6.4982    8.9074   35.6747 C   0  0  0  0  0  0  0  0  0  0  0  0
    5.9867    7.7605   36.3183 C   0  0  0  0  0  0  0  0  0  0  0  0
    5.0607    7.3188   35.9611 H   0  0  0  0  0  0  0  0  0  0  0  0
    5.7460    9.6406   34.6377 C   0  0  0  0  0  0  0  0  0  0  0  0
    5.8986   11.0132   34.5640 C   0  0  0  0  0  0  0  0  0  0  0  0
    6.5738   11.5206   35.2564 H   0  0  0  0  0  0  0  0  0  0  0  0
    5.1636   11.8151   33.6680 C   0  0  0  0  0  0  0  0  0  0  0  0
    5.3108   13.2259   33.6407 C   0  0  0  0  0  0  0  0  0  0  0  0
    6.0389   13.6950   34.3072 H   0  0  0  0  0  0  0  0  0  0  0  0
    4.5446   13.9921   32.7957 C   0  0  0  0  0  0  0  0  0  0  0  0
    4.6571   15.0780   32.7788 H   0  0  0  0  0  0  0  0  0  0  0  0
    3.5952   13.3703   31.9550 C   0  0  0  0  0  0  0  0  0  0  0  0
    2.9730   13.9857   31.3010 H   0  0  0  0  0  0  0  0  0  0  0  0
    3.4376   12.0014   31.9561 C   0  0  0  0  0  0  0  0  0  0  0  0
    2.6882   11.5424   31.3086 H   0  0  0  0  0  0  0  0  0  0  0  0
    4.2254   11.1824   32.8030 C   0  0  0  0  0  0  0  0  0  0  0  0
    4.0829    9.7570   32.8344 C   0  0  0  0  0  0  0  0  0  0  0  0
    4.8138    9.0032   33.7428 C   0  0  0  0  0  0  0  0  0  0  0  0
    3.2242    6.7548   32.7694 H   0  0  0  0  0  0  0  0  0  0  0  0
    4.5824    5.7553   33.3375 H   0  0  0  0  0  0  0  0  0  0  0  0
    4.8380    6.9246   31.9957 H   0  0  0  0  0  0  0  0  0  0  0  0
    5.2252    2.4693   35.1726 H   0  0  0  0  0  0  0  0  0  0  0  0
    5.0186    1.9817   33.4684 H   0  0  0  0  0  0  0  0  0  0  0  0
    3.7689    1.5579   34.6756 H   0  0  0  0  0  0  0  0  0  0  0  0
    6.0524    9.6152   29.2665 H   0  0  0  0  0  0  0  0  0  0  0  0
    5.9268    9.9203   31.0266 H   0  0  0  0  0  0  0  0  0  0  0  0
    4.7674   10.6919   29.9017 H   0  0  0  0  0  0  0  0  0  0  0  0
    6.7564    3.2253   32.1352 H   0  0  0  0  0  0  0  0  0  0  0  0
    5.7559    4.5831   31.5675 H   0  0  0  0  0  0  0  0  0  0  0  0
    6.9249    4.8391   32.9093 H   0  0  0  0  0  0  0  0  0  0  0  0
    2.4700    5.2247   29.7327 H   0  0  0  0  0  0  0  0  0  0  0  0
    1.9822    5.0171   31.4368 H   0  0  0  0  0  0  0  0  0  0  0  0
    1.5588    3.7679   30.2289 H   0  0  0  0  0  0  0  0  0  0  0  0
    9.6169    6.0548   35.6374 H   0  0  0  0  0  0  0  0  0  0  0  0
    9.9196    5.9296   33.8768 H   0  0  0  0  0  0  0  0  0  0  0  0
   10.6942    4.7710   35.0006 H   0  0  0  0  0  0  0  0  0  0  0  0
  1  4  1  0  0  0  0
  1205  1  0  0  0  0
  1 44  1  0  0  0  0
  2  3  1  0  0  0  0
  3248  1  0  0  0  0
  3246  1  0  0  0  0
  4  6  1  0  0  0  0
  5 19  1  0  0  0  0
  5  1  1  0  0  0  0
  6  7  1  0  0  0  0
  7  8  1  0  0  0  0
  7  9  2  0  0  0  0
  9 10  1  0  0  0  0
 11  9  1  0  0  0  0
 11 12  1  0  0  0  0
 13 11  2  0  0  0  0
 14 13  1  0  0  0  0
 15  6  2  0  0  0  0
 15 13  1  0  0  0  0
 16 15  1  0  0  0  0
 17 18  1  0  0  0  0
 17  4  1  0  0  0  0
 19 17  2  0  0  0  0
 20 21  1  0  0  0  0
 20 19  1  0  0  0  0
 22 20  2  0  0  0  0
 23 22  1  0  0  0  0
 24 22  1  0  0  0  0
 24 25  2  0  0  0  0
 25  5  1  0  0  0  0
 26 25  1  0  0  0  0
 27 24  1  0  0  0  0
 28 27  1  0  0  0  0
 28 29  1  0  0  0  0
 30 28  2  0  0  0  0
 31 30  1  0  0  0  0
 31 32  1  0  0  0  0
 33 31  2  0  0  0  0
 34 33  1  0  0  0  0
 35 37  2  0  0  0  0
 35 33  1  0  0  0  0
 36 35  1  0  0  0  0
 37 39  1  0  0  0  0
 38 37  1  0  0  0  0
 39 40  2  0  0  0  0
 39 30  1  0  0  0  0
 40 41  1  0  0  0  0
 41  2  1  0  0  0  0
 41 27  2  0  0  0  0
 42 43  1  0  0  0  0
 43260  1  0  0  0  0
 43258  1  0  0  0  0
 44 46  1  0  0  0  0
 45  1  1  0  0  0  0
 45 59  1  0  0  0  0
 46 47  2  0  0  0  0
 46 55  1  0  0  0  0
 47 49  1  0  0  0  0
 48 47  1  0  0  0  0
 49 50  1  0  0  0  0
 49 51  2  0  0  0  0
 51 52  1  0  0  0  0
 53 51  1  0  0  0  0
 53 54  1  0  0  0  0
 55 53  2  0  0  0  0
 56 55  1  0  0  0  0
 57 44  1  0  0  0  0
 57 58  1  0  0  0  0
 59 57  2  0  0  0  0
 60 59  1  0  0  0  0
 60 61  1  0  0  0  0
 62 60  2  0  0  0  0
 63 62  1  0  0  0  0
 64 65  2  0  0  0  0
 64 62  1  0  0  0  0
 65 45  1  0  0  0  0
 66 65  1  0  0  0  0
 67 64  1  0  0  0  0
 68 69  1  0  0  0  0
 68 67  1  0  0  0  0
 70 68  2  0  0  0  0
 71 70  1  0  0  0  0
 71 72  1  0  0  0  0
 73 71  2  0  0  0  0
 74 73  1  0  0  0  0
 75 77  2  0  0  0  0
 75 73  1  0  0  0  0
 76 75  1  0  0  0  0
 77 79  1  0  0  0  0
 78 77  1  0  0  0  0
 79 80  2  0  0  0  0
 79 70  1  0  0  0  0
 80 81  1  0  0  0  0
 81 42  1  0  0  0  0
 81 67  2  0  0  0  0
 82121  1  0  0  0  0
 82 83  1  0  0  0  0
 83252  1  0  0  0  0
 83254  1  0  0  0  0
 84 97  1  0  0  0  0
 84162  1  0  0  0  0
 85105  1  0  0  0  0
 86 84  1  0  0  0  0
 87 86  1  0  0  0  0
 87 88  1  0  0  0  0
 89 87  2  0  0  0  0
 90 89  1  0  0  0  0
 91 93  2  0  0  0  0
 91 89  1  0  0  0  0
 92 91  1  0  0  0  0
 93 95  1  0  0  0  0
 94 93  1  0  0  0  0
 95 96  1  0  0  0  0
 95 86  2  0  0  0  0
 97 99  2  0  0  0  0
 98 97  1  0  0  0  0
 99 85  1  0  0  0  0
 99100  1  0  0  0  0
100102  2  0  0  0  0
101100  1  0  0  0  0
102104  1  0  0  0  0
102103  1  0  0  0  0
104107  1  0  0  0  0
105106  1  0  0  0  0
105104  2  0  0  0  0
107108  2  0  0  0  0
107121  1  0  0  0  0
108110  1  0  0  0  0
109108  1  0  0  0  0
110111  2  0  0  0  0
110119  1  0  0  0  0
111113  1  0  0  0  0
112111  1  0  0  0  0
113114  1  0  0  0  0
113115  2  0  0  0  0
115116  1  0  0  0  0
117115  1  0  0  0  0
117118  1  0  0  0  0
119117  2  0  0  0  0
120119  1  0  0  0  0
120 80  1  0  0  0  0
121120  2  0  0  0  0
122161  1  0  0  0  0
123122  1  0  0  0  0
123256  1  0  0  0  0
124137  1  0  0  0  0
124162  1  0  0  0  0
125145  1  0  0  0  0
126135  1  0  0  0  0
126124  1  0  0  0  0
127126  2  0  0  0  0
128127  1  0  0  0  0
129131  2  0  0  0  0
129127  1  0  0  0  0
130129  1  0  0  0  0
131133  1  0  0  0  0
132131  1  0  0  0  0
133134  1  0  0  0  0
133135  2  0  0  0  0
135136  1  0  0  0  0
137139  2  0  0  0  0
138137  1  0  0  0  0
139125  1  0  0  0  0
139140  1  0  0  0  0
140142  2  0  0  0  0
141140  1  0  0  0  0
142144  1  0  0  0  0
142143  1  0  0  0  0
144147  1  0  0  0  0
145146  1  0  0  0  0
145144  2  0  0  0  0
147148  2  0  0  0  0
147161  1  0  0  0  0
148150  1  0  0  0  0
149148  1  0  0  0  0
150151  2  0  0  0  0
150159  1  0  0  0  0
151153  1  0  0  0  0
152151  1  0  0  0  0
153154  1  0  0  0  0
153155  2  0  0  0  0
155156  1  0  0  0  0
157155  1  0  0  0  0
157158  1  0  0  0  0
159157  2  0  0  0  0
160159  1  0  0  0  0
160 40  1  0  0  0  0
161160  2  0  0  0  0
162166  1  0  0  0  0
162125  1  0  0  0  0
162 85  1  0  0  0  0
163202  1  0  0  0  0
164163  1  0  0  0  0
164250  1  0  0  0  0
165178  1  0  0  0  0
165162  1  0  0  0  0
166186  1  0  0  0  0
167165  1  0  0  0  0
168167  1  0  0  0  0
168169  1  0  0  0  0
170168  2  0  0  0  0
171170  1  0  0  0  0
172174  2  0  0  0  0
172170  1  0  0  0  0
173172  1  0  0  0  0
174176  1  0  0  0  0
175174  1  0  0  0  0
176177  1  0  0  0  0
176167  2  0  0  0  0
178180  2  0  0  0  0
179178  1  0  0  0  0
180181  1  0  0  0  0
180166  1  0  0  0  0
181183  2  0  0  0  0
182181  1  0  0  0  0
183184  1  0  0  0  0
183185  1  0  0  0  0
185188  1  0  0  0  0
186185  2  0  0  0  0
186187  1  0  0  0  0
188189  2  0  0  0  0
188202  1  0  0  0  0
189191  1  0  0  0  0
190189  1  0  0  0  0
191192  2  0  0  0  0
191200  1  0  0  0  0
192194  1  0  0  0  0
193192  1  0  0  0  0
194195  1  0  0  0  0
194196  2  0  0  0  0
196197  1  0  0  0  0
198196  1  0  0  0  0
198199  1  0  0  0  0
200198  2  0  0  0  0
201200  1  0  0  0  0
201241  1  0  0  0  0
202201  2  0  0  0  0
204244  1  0  0  0  0
204203  1  0  0  0  0
205207  1  0  0  0  0
206220  1  0  0  0  0
206  1  1  0  0  0  0
207208  2  0  0  0  0
207216  1  0  0  0  0
208210  1  0  0  0  0
209208  1  0  0  0  0
210211  1  0  0  0  0
210212  2  0  0  0  0
212213  1  0  0  0  0
214212  1  0  0  0  0
214215  1  0  0  0  0
216214  2  0  0  0  0
217216  1  0  0  0  0
218219  1  0  0  0  0
218205  1  0  0  0  0
220218  2  0  0  0  0
221222  1  0  0  0  0
221220  1  0  0  0  0
223221  2  0  0  0  0
224223  1  0  0  0  0
225223  1  0  0  0  0
225226  2  0  0  0  0
226206  1  0  0  0  0
227226  1  0  0  0  0
228225  1  0  0  0  0
229228  1  0  0  0  0
229230  1  0  0  0  0
231229  2  0  0  0  0
232231  1  0  0  0  0
232233  1  0  0  0  0
234232  2  0  0  0  0
235234  1  0  0  0  0
236238  2  0  0  0  0
236234  1  0  0  0  0
237236  1  0  0  0  0
238240  1  0  0  0  0
239238  1  0  0  0  0
240241  2  0  0  0  0
240231  1  0  0  0  0
241242  1  0  0  0  0
242203  1  0  0  0  0
242228  2  0  0  0  0
243204  1  0  0  0  0
245204  1  0  0  0  0
247  3  1  0  0  0  0
249164  1  0  0  0  0
251164  1  0  0  0  0
253 83  1  0  0  0  0
255123  1  0  0  0  0
257123  1  0  0  0  0
259 43  1  0  0  0  0
M  END
