186

Pd -2.015100 5.866100 -0.000300
Pd -0.089000 -7.483300 -0.279800
C 4.368900 1.808500 1.161800
C 4.166400 2.988200 1.339500
C 3.784800 4.338200 1.462800
C 4.674100 5.343700 1.793400
C 4.252600 6.677300 1.873200
C 2.952400 7.029400 1.614500
C 2.012900 6.033200 1.270100
C 0.670000 6.324600 0.967000
N -0.200500 5.388900 0.645700
C 0.175900 4.088200 0.601600
C 1.456900 3.704400 0.867500
C 2.423700 4.671300 1.203800
H 5.706200 5.097700 1.992100
H 4.973200 7.435700 2.138100
H 2.639200 8.059600 1.669600
H 0.302600 7.348200 0.988200
H -0.595000 3.371000 0.341900
H 1.743300 2.666600 0.816800
C 4.516000 0.436200 0.880400
C 3.431300 -0.422600 1.100900
C 3.506000 -1.746500 0.731200
C 4.667800 -2.239400 0.126500
C 5.767300 -1.390300 -0.055900
C 5.694100 -0.066800 0.319000
H 2.536200 -0.033700 1.560700
H 2.669200 -2.406200 0.896600
H 6.669500 -1.777500 -0.505000
H 6.536300 0.590800 0.164600
C 4.746800 -3.568100 -0.330600
C 4.821200 -4.692100 -0.773600
C 5.049500 -5.968800 -1.316500
C 6.319200 -6.278700 -1.776200
C 6.606100 -7.530800 -2.325500
C 5.633700 -8.495100 -2.423500
C 4.331000 -8.225900 -1.969000
C 3.291500 -9.180300 -2.034800
C 2.050900 -8.865900 -1.565600
N 1.762300 -7.648100 -1.038200
C 2.704500 -6.727100 -0.967700
C 4.018700 -6.951600 -1.410100
H 7.100100 -5.537200 -1.704900
H 7.607400 -7.735200 -2.672700
H 5.854900 -9.463200 -2.844500
H 3.491300 -10.154400 -2.451500
H 1.235800 -9.585700 -1.601700
H 2.424800 -5.767300 -0.542400
C -1.004800 1.709200 5.752000
C -1.254000 2.890700 5.842900
C -1.495600 4.272100 5.711800
C -1.252400 5.192100 6.715000
C -1.407300 6.564000 6.478700
C -1.762500 7.041300 5.241500
C -2.024600 6.136200 4.191300
C -2.307800 6.548200 2.869800
N -2.552000 5.695200 1.899900
C -2.590800 4.360400 2.165800
C -2.287400 3.860200 3.396600
C -1.939800 4.738700 4.441500
H -0.929800 4.851100 7.687000
H -1.217700 7.254700 7.286100
H -1.841300 8.101700 5.062500
H -2.322200 7.602500 2.613500
H -2.878000 3.694800 1.348500
H -2.297000 2.799100 3.584700
C -0.671700 0.352100 5.574100
C -1.014300 -0.282600 4.372200
C -0.638300 -1.586400 4.137400
C 0.095300 -2.286700 5.100500
C 0.418500 -1.660300 6.312400
C 0.039000 -0.357500 6.548100
H -1.575500 0.259800 3.627300
H -0.903300 -2.071100 3.211000
H 0.973900 -2.205500 7.060800
H 0.295200 0.124400 7.479700
C 0.528600 -3.610100 4.894400
C 0.932000 -4.743400 4.753300
C 1.453900 -6.047300 4.834100
C 2.063900 -6.411600 6.025500
C 2.583700 -7.692500 6.218300
C 2.494300 -8.638300 5.227300
C 1.887500 -8.313200 4.002400
C 1.755100 -9.255100 2.958000
C 1.161400 -8.890100 1.787800
N 0.699800 -7.629000 1.567500
C 0.795400 -6.724900 2.523500
C 1.368100 -7.003300 3.778200
H 2.130500 -5.686200 6.821800
H 3.050600 -7.935600 7.160300
H 2.882200 -9.633900 5.374800
H 2.121900 -10.259000 3.100100
H 1.036800 -9.607700 0.976300
H 0.404900 -5.735900 2.306600
C -5.250200 1.449200 -3.659300
C -5.240900 2.611900 -3.995000
C -5.053200 3.997100 -4.197700
C -5.033000 4.593300 -5.442800
C -4.699200 5.947900 -5.581500
C -4.323900 6.703300 -4.500100
C -4.327700 6.129700 -3.210300
C -3.796100 6.779300 -2.074500
N -3.786700 6.230000 -0.876100
C -4.424900 5.040400 -0.687100
C -4.895600 4.295100 -1.730800
C -4.768500 4.786700 -3.048100
H -5.264900 4.008600 -6.320000
H -4.707000 6.386900 -6.567400
H -4.014500 7.729000 -4.622800
H -3.345800 7.760600 -2.172600
H -4.604600 4.750500 0.343800
H -5.348900 3.330400 -1.566500
C -5.214000 0.130200 -3.155400
C -6.346000 -0.423600 -2.548600
C -6.263600 -1.648000 -1.922900
C -5.048000 -2.344600 -1.885900
C -3.929200 -1.810500 -2.532800
C -4.012200 -0.586600 -3.161800
H -7.279600 0.118900 -2.561800
H -7.134100 -2.070100 -1.443900
H -2.999700 -2.356700 -2.526500
H -3.149100 -0.165700 -3.653600
C -4.995500 -3.556100 -1.169200
C -4.997500 -4.568600 -0.504800
C -5.229200 -5.720600 0.269200
C -6.522100 -5.935900 0.722000
C -6.855400 -7.068800 1.466900
C -5.907000 -8.016900 1.760300
C -4.583000 -7.840900 1.323300
C -3.573700 -8.796100 1.574900
C -2.306000 -8.580700 1.122500
N -1.955800 -7.450700 0.453800
C -2.873000 -6.535700 0.196000
C -4.216800 -6.675900 0.585100
H -7.287000 -5.212500 0.485400
H -7.872900 -7.198000 1.802400
H -6.162900 -8.902100 2.321000
H -3.818300 -9.695800 2.116500
H -1.521300 -9.314700 1.290500
H -2.549200 -5.648100 -0.340100
C 1.555700 1.773000 -5.075700
C 1.611800 2.974900 -4.948800
C 1.571800 4.353000 -4.651800
C 2.455300 5.267600 -5.192400
C 2.411200 6.616400 -4.815500
C 1.507600 7.066500 -3.886900
C 0.582000 6.165500 -3.317600
C -0.342600 6.545900 -2.326200
N -1.204700 5.700000 -1.802800
C -1.252000 4.414000 -2.235800
C -0.383500 3.941100 -3.173900
C 0.590800 4.800400 -3.721300
H 3.194100 4.937100 -5.906600
H 3.114700 7.303800 -5.259400
H 1.495700 8.101700 -3.585700
H -0.372400 7.564400 -1.952200
H -2.029100 3.785000 -1.802200
H -0.425200 2.914100 -3.498200
C 1.383300 0.375200 -5.152500
C 1.426200 -0.381100 -3.974600
C 1.123000 -1.724300 -4.001300
C 0.759600 -2.336600 -5.205800
C 0.769700 -1.590600 -6.391500
C 1.081500 -0.248700 -6.366700
H 1.689200 0.103200 -3.047100
H 1.145500 -2.305300 -3.093100
H 0.513300 -2.069800 -7.324300
H 1.070200 0.330300 -7.277900
C 0.328100 -3.676100 -5.248200
C -0.123600 -4.798000 -5.300400
C -0.678200 -6.071900 -5.517800
C -1.004500 -6.438600 -6.813700
C -1.574400 -7.682500 -7.094500
C -1.826800 -8.583100 -6.089100
C -1.506900 -8.257100 -4.759800
C -1.728600 -9.148600 -3.686200
C -1.373800 -8.788600 -2.420200
N -0.818200 -7.580000 -2.139900
C -0.609800 -6.714300 -3.113500
C -0.926900 -6.990500 -4.454100
H -0.813900 -5.746700 -7.619700
H -1.816100 -7.931200 -8.116500
H -2.266400 -9.544100 -6.304500
H -2.169300 -10.113400 -3.880900
H -1.528500 -9.460700 -1.576600
H -0.168700 -5.760500 -2.839600
