202

Pd -0.526600 6.835800 -1.602200
Pd 0.237400 -7.085400 0.885500
C 4.238300 4.123700 0.395200
C 3.717600 4.851900 1.209300
C 3.203400 5.810600 2.107400
C 3.817900 6.048500 3.321300
C 3.409300 7.110600 4.137100
C 2.407000 7.963400 3.746500
C 1.740100 7.748700 2.526700
C 0.719800 8.595500 2.037400
C 0.118600 8.322900 0.841900
N 0.433100 7.222100 0.112100
C 1.386700 6.411800 0.534100
C 2.109900 6.639000 1.713600
H 4.641500 5.423300 3.630100
H 3.915700 7.271400 5.076700
H 2.124700 8.804100 4.360500
H 0.430000 9.462400 2.609500
H -0.642700 8.972700 0.422000
H 1.606300 5.532900 -0.068700
C 4.931100 3.374600 -0.582500
C 5.855100 4.070500 -1.383900
C 6.612000 3.420800 -2.333000
C 6.433000 2.051900 -2.480100
N 7.064000 1.179000 -3.326700
C 6.587800 -0.083500 -3.110000
C 6.954900 -1.280000 -3.715700
C 6.324700 -2.431200 -3.302100
C 5.330400 -2.400900 -2.304800
C 4.954200 -1.200100 -1.702300
C 5.590200 -0.037100 -2.101600
C 5.493400 1.340500 -1.693000
C 4.738600 2.005300 -0.737900
H 5.978800 5.131900 -1.232500
H 7.332800 3.957300 -2.929700
H 7.804300 1.418400 -3.965400
H 7.716800 -1.308100 -4.479600
H 6.590800 -3.379100 -3.744700
H 4.197300 -1.187200 -0.934600
H 4.031500 1.477300 -0.118700
C 4.734700 -3.612700 -1.912700
C 4.249800 -4.672700 -1.587500
C 3.700400 -5.905000 -1.197700
C 4.334300 -7.120100 -1.501400
C 3.758700 -8.304000 -1.080300
C 2.566200 -8.265600 -0.372100
N 1.960800 -7.108700 -0.092500
C 2.498400 -5.956500 -0.484900
H 5.261200 -7.117700 -2.053300
H 4.226700 -9.250800 -1.296000
H 2.078500 -9.171300 -0.020300
H 1.963600 -5.043900 -0.225900
C -2.211700 4.248100 3.532300
C -3.078600 4.732000 2.840300
C -4.115400 5.394500 2.150800
C -5.399000 5.394100 2.662300
C -6.410500 6.159000 2.071400
C -6.154800 6.953200 0.981700
C -4.864200 6.981900 0.423900
C -4.512400 7.809000 -0.666700
C -3.240100 7.784300 -1.160100
N -2.291900 6.948100 -0.663700
C -2.577100 6.175800 0.368400
C -3.837200 6.169100 0.985400
H -5.612900 4.814000 3.546500
H -7.399700 6.142200 2.503100
H -6.928700 7.568500 0.550500
H -5.253300 8.464100 -1.096400
H -2.927200 8.431400 -1.974400
H -1.791000 5.522100 0.739800
C -1.203600 3.807400 4.419300
C -0.770900 4.728000 5.392300
C 0.186800 4.390200 6.322200
C 0.713000 3.106100 6.273400
N 1.654700 2.523700 7.080100
C 1.845000 1.228800 6.689100
C 2.680300 0.258900 7.232300
C 2.670000 -0.992800 6.661400
C 1.846700 -1.283800 5.555900
C 1.018700 -0.307700 5.000200
C 1.013900 0.953400 5.571600
C 0.285400 2.166700 5.302200
C -0.676300 2.520800 4.366600
H -1.210700 5.713600 5.407400
H 0.509700 5.098400 7.069600
H 2.102900 2.966400 7.865200
H 3.309400 0.476900 8.081800
H 3.298500 -1.772900 7.063400
H 0.388900 -0.540900 4.156800
H -1.019300 1.817300 3.625200
C 1.856700 -2.592100 5.041400
C 1.875600 -3.734700 4.643000
C 1.868500 -5.067700 4.201800
C 2.469100 -6.092100 4.950600
C 2.406700 -7.392100 4.485700
C 1.752400 -7.656000 3.290900
N 1.191100 -6.678300 2.575400
C 1.241700 -5.418900 3.002100
H 2.965800 -5.856700 5.878900
H 2.856200 -8.198000 5.042800
H 1.672500 -8.663500 2.890600
H 0.768300 -4.662200 2.378400
C -4.817800 2.955700 -2.308500
C -4.355500 3.354400 -3.353100
C -3.909300 3.921100 -4.564900
C -4.456900 3.541900 -5.774600
C -4.113800 4.207500 -6.957100
C -3.245200 5.270400 -6.950800
C -2.653700 5.684200 -5.744000
C -1.780200 6.790800 -5.643500
C -1.240300 7.128900 -4.435800
N -1.477400 6.403400 -3.313100
C -2.301200 5.372900 -3.365100
C -2.955600 4.982400 -4.541900
H -5.178700 2.740400 -5.800200
H -4.570600 3.894200 -7.883500
H -3.014900 5.803100 -7.860000
H -1.552200 7.368900 -6.524800
H -0.591900 7.991200 -4.317300
H -2.464200 4.810100 -2.448200
C -5.438800 2.560700 -1.102600
C -6.394700 3.432600 -0.549600
C -7.088700 3.102100 0.593100
C -6.810000 1.881200 1.192700
N -7.362700 1.313500 2.310400
C -6.796500 0.087500 2.521200
C -7.062200 -0.849200 3.514000
C -6.348600 -2.026000 3.498100
C -5.371000 -2.273000 2.515000
C -5.099600 -1.332700 1.520500
C -5.819800 -0.150900 1.519800
C -5.832700 1.004000 0.660100
C -5.145900 1.343200 -0.495600
H -6.596500 4.368200 -1.048300
H -7.836400 3.765500 0.998400
H -8.108500 1.710100 2.858000
H -7.810000 -0.664500 4.270000
H -6.533800 -2.777800 4.250300
H -4.355500 -1.533500 0.766700
H -4.413600 0.678900 -0.925300
C -4.670500 -3.491700 2.540400
C -4.076100 -4.545300 2.570000
C -3.374200 -5.761500 2.588200
C -3.831300 -6.872400 3.313800
C -3.096600 -8.043000 3.286100
C -1.922000 -8.092000 2.549100
N -1.486200 -7.031300 1.865200
C -2.180600 -5.896400 1.872100
H -4.747000 -6.803600 3.880100
H -3.426800 -8.912700 3.830700
H -1.311600 -8.989800 2.500900
H -1.782200 -5.065100 1.291900
C 1.118000 2.712000 -5.408900
C 2.031300 3.401000 -5.015100
C 3.067300 4.294100 -4.672200
C 4.336800 4.148600 -5.195900
C 5.318600 5.121700 -4.977100
C 5.045700 6.261600 -4.262900
C 3.770600 6.446400 -3.699600
C 3.394100 7.607200 -2.986500
C 2.138600 7.709600 -2.459900
N 1.234100 6.700900 -2.552800
C 1.543200 5.610400 -3.230200
C 2.780400 5.436400 -3.866300
H 4.561800 3.287000 -5.805000
H 6.296900 4.982800 -5.411400
H 5.794400 7.027300 -4.134000
H 4.102200 8.412100 -2.870600
H 1.806400 8.601300 -1.937700
H 0.797600 4.820000 -3.282000
C 0.046700 1.975900 -5.962700
C -0.665300 2.569800 -7.021200
C -1.690600 1.905300 -7.656600
C -2.009100 0.628100 -7.214800
N -2.961000 -0.241600 -7.678200
C -2.905500 -1.399600 -6.954100
C -3.659400 -2.560600 -7.085600
C -3.396000 -3.601700 -6.224700
C -2.402300 -3.494000 -5.232700
C -1.648700 -2.327900 -5.095100
C -1.896600 -1.279300 -5.963500
C -1.315500 0.026700 -6.135300
C -0.279800 0.702100 -5.507600
H -0.382400 3.558500 -7.348400
H -2.217000 2.358300 -8.481900
H -3.567400 -0.077600 -8.464800
H -4.422300 -2.647900 -7.844100
H -3.957600 -4.520100 -6.303400
H -0.884400 -2.257100 -4.338000
H 0.270600 0.251700 -4.697500
C -2.165200 -4.588200 -4.382200
C -1.962800 -5.537500 -3.659700
C -1.704800 -6.631400 -2.817600
C -2.126000 -7.931000 -3.138700
C -1.826200 -8.968100 -2.275300
C -1.120800 -8.701400 -1.110700
N -0.729200 -7.462400 -0.803500
C -1.004400 -6.449300 -1.620800
H -2.672300 -8.107600 -4.052000
H -2.133700 -9.976600 -2.499400
H -0.862000 -9.485900 -0.404400
H -0.658800 -5.460400 -1.322600
