218

Fe        12.23300       15.22300       10.66300
Fe         7.21700        3.79200       12.84400
O         13.70000       10.12700       13.35100
O         10.81400        8.57400       15.70700
N         10.86100       16.14100        9.23100
N         12.12200       13.73900        9.09400
N          8.84000        3.45900       11.45400
N          8.13800        1.95500       13.60500
C         10.06900       17.33800        9.42300
C          8.68400       17.31300        9.20900
C          7.94000       18.46800        9.41600
C          8.56500       19.64400        9.82300
C          9.94200       19.66600       10.02900
C         10.69800       18.51600        9.83300
C         10.71200       15.45900        8.12100
C         11.39200       14.16400        8.00300
C         11.25300       13.36900        6.86400
C         11.81300       12.09300        6.85500
C         12.49500       11.63100        7.98400
C         12.65400       12.49100        9.08200
C         14.04300       11.90200       14.88500
C         14.07800       12.38600       16.17000
C         13.82000       11.53500       17.27400
C         13.87800       12.04300       18.60100
C         13.66800       11.21200       19.66900
C         13.39100        9.84100       19.45900
C         13.32000        9.33200       18.18900
C         13.53300       10.16900       17.06000
C         13.48300        9.66600       15.72300
C         13.73800       10.52300       14.66200
C         13.20200        8.23500       15.48600
C         14.27700        7.32200       15.26400
C         15.63500        7.74100       15.26900
C         16.64500        6.83800       15.06800
C         16.35400        5.47300       14.84200
C         15.05600        5.03900       14.83100
C         13.99000        5.95600       15.04800
C         12.64800        5.50100       15.08000
C         11.61200        6.37000       15.32900
C         11.89900        7.75900       15.52400
C          9.22300        4.24200       10.41400
C         10.25600        3.86200        9.54500
C         10.89900        2.63900        9.74700
C         10.52500        1.83600       10.82300
C          9.50400        2.26900       11.67100
C          9.12000        1.50400       12.86300
C          7.85000        1.28500       14.85600
C          8.88200        0.97800       15.75200
C          8.58100        0.34500       16.95200
C          7.26400        0.01100       17.26000
C          6.24100        0.31600       16.36500
C          6.52800        0.95400       15.16400
O         10.87900        9.37800        7.70700
O         11.78500        6.15400        9.94600
N         14.16900       15.72000        9.76700
N         13.63200       14.18700       11.94300
N          8.35600        4.76900       14.40100
N          5.71000        4.15900       14.38400
C         14.40000       16.37800        8.49800
C         13.76700       17.59500        8.23400
C         13.97600       18.22800        7.01400
C         14.80800       17.65200        6.05800
C         15.43600       16.43700        6.32100
C         15.24100       15.79600        7.53900
C         15.20000       15.26000       10.43500
C         14.95100       14.45400       11.63500
C         15.99700       13.93500       12.39900
C         15.70400       13.10200       13.47700
C         14.37200       12.79500       13.76600
C         13.35500       13.36200       12.98300
C         13.05300       10.27400        8.02100
C         14.40400       10.09500        8.20400
C         14.98000        8.80100        8.17100
C         16.38500        8.63300        8.32000
C         16.94500        7.38700        8.24800
C         16.12800        6.25300        8.02600
C         14.77200        6.38800        7.89000
C         14.16200        7.66900        7.96000
C         12.75300        7.84600        7.80700
C         12.21900        9.12700        7.82900
C         11.88200        6.67500        7.57900
C         11.49400        6.32400        6.24900
C         11.91900        7.07200        5.11800
C         11.54200        6.70200        3.85400
C         10.71500        5.57200        3.65300
C         10.29200        4.83100        4.72200
C         10.67800        5.19000        6.04300
C         10.27100        4.40100        7.14800
C         10.65100        4.73000        8.42700
C         11.46600        5.88500        8.64200
C          9.63900        5.20700       14.34900
C         10.24000        5.86200       15.43600
C          9.51300        6.01300       16.62200
C          8.19100        5.57800       16.67700
C          7.62000        4.99100       15.54700
C          6.19300        4.65500       15.49700
C          4.27700        3.98500       14.26600
C          3.77100        2.76800       13.80200
C          2.39700        2.59900       13.67500
C          1.52900        3.63600       14.00500
C          2.03500        4.84800       14.46800
C          3.40600        5.02900       14.60600
N         12.09100       16.67500       12.30500
N         10.45400       14.60800       11.70700
N          6.47500        5.59500       11.93700
N          5.93900        3.04400       11.22200
C         13.09200       17.64200       12.70000
C         13.68700       18.44400       11.72200
C         14.66100       19.36500       12.08800
C         15.04600       19.48800       13.42100
C         14.45300       18.68600       14.39400
C         13.47400       17.76500       14.04300
C         10.99000       16.57700       13.01000
C         10.07100       15.47100       12.71300
C          8.91500       15.24600       13.46300
C          8.17900       14.08100       13.24700
C          8.62000       13.16400       12.29200
C          9.74300       13.47000       11.51200
C          6.86900        6.86400       12.19900
C          6.32400        7.97100       11.52700
C          5.30100        7.74500       10.59900
C          4.89800        6.44400       10.31000
C          5.52300        5.37800       10.96200
C          5.26900        3.98000       10.59600
C          5.84100        1.67900       10.75500
C          5.93300        1.38400        9.38800
C          5.85900        0.06200        8.96600
C          5.68700       -0.96400        9.89300
C          5.59100       -0.66600       11.25000
C          5.66900        0.65100       11.68600
C          6.85400        9.31700       11.77100
C          6.32600       10.42400       11.09700
C          6.87800       11.68900       11.27200
C          7.96900       11.85600       12.12500
C          8.48000       10.76300       12.83000
C          7.92400        9.50500       12.65500
H         13.74500        9.17700       13.34000
H         11.13100        9.38900       16.08300
H          8.18100       16.39900        8.87300
H          6.85600       18.45500        9.24700
H          7.97300       20.55600        9.97300
H         10.43500       20.59600       10.33600
H         11.79300       18.54700        9.97600
H         10.07100       15.78700        7.28500
H         10.70000       13.74300        5.99200
H         11.70500       11.44800        5.97200
H         13.21100       12.19100        9.98200
H         14.32400       13.43900       16.36200
H         14.10400       13.10500       18.75600
H         13.72200       11.59600       20.69500
H         13.24100        9.18900       20.32700
H         13.12200        8.26500       18.02700
H         15.86100        8.79800       15.46200
H         17.69300        7.16300       15.09000
H         17.18000        4.76800       14.68900
H         14.82200        3.98000       14.66900
H         12.44900        4.43200       14.92800
H          8.68400        5.19200       10.29700
H         11.69700        2.31400        9.06500
H         11.02600        0.87600       11.00500
H          9.69600        0.59300       13.10200
H          9.92600        1.22200       15.51900
H          9.38600        0.09700       17.65500
H          7.03300       -0.50000       18.20300
H          5.20600        0.04100       16.60300
H          5.71300        1.17000       14.44900
H         10.46900        8.59100        7.36200
H         12.50500        6.77500        9.94000
H         13.12200       18.07000        8.99400
H         13.49200       19.19100        6.81000
H         14.97700       18.16000        5.09900
H         16.09600       15.98700        5.56900
H         15.75200       14.84600        7.73700
H         16.24700       15.41600       10.12300
H         17.03900       14.17900       12.14800
H         16.51300       12.68300       14.09200
H         12.29300       13.15600       13.17100
H         15.06200       10.96100        8.35300
H         17.01200        9.51900        8.47800
H         18.02900        7.25400        8.34800
H         16.59800        5.26400        7.95600
H         14.14000        5.51100        7.70000
H         12.57400        7.93900        5.27200
H         11.88300        7.27400        2.98300
H         10.42800        5.29400        2.63100
H          9.66000        3.94600        4.57500
H          9.65800        3.50900        6.96300
H         10.17800        5.02500       13.40800
H          9.97700        6.48900       17.49600
H          7.59800        5.70600       17.59300
H          5.57600        4.87700       16.38500
H          4.45200        1.93200       13.56100
H          1.99700        1.64000       13.32400
H          0.44400        3.49500       13.90800
H          1.34800        5.66100       14.73600
H          3.78900        5.98400       14.98600
H         13.36700       18.37200       10.66700
H         15.12000       20.00500       11.32500
H         15.81100       20.22200       13.70600
H         14.75300       18.79000       15.44400
H         13.00900       17.14900       14.82300
H         10.73700       17.25000       13.84800
H          8.60200       15.97100       14.22800
H          7.27500       13.87900       13.83700
H         10.10900       12.79800       10.72100
H          7.65900        6.99200       12.96200
H          4.83500        8.60800       10.09100
H          4.11100        6.25400        9.56700
H          4.55800        3.78000        9.77500
H          6.05900        2.18100        8.64400
H          5.92700       -0.17300        7.89600
H          5.61900       -2.00500        9.55300
H          5.44400       -1.47400       11.97800
H          5.56500        0.88100       12.76200
H          5.47000       10.28200       10.41800
H          6.45600       12.54700       10.73700
H          9.32100       10.89500       13.52100
H          8.33200        8.64500       13.20900
