
 OpenBabel04092113293D

230258  0  0  0  0  0  0  0  0999 V2000
   12.0966   15.0990   10.8247 Fe  0  0  0  0  0  0  0  0  0  0  0  0
    7.1845    3.9838   12.7081 Fe  0  0  0  0  0  0  0  0  0  0  0  0
   12.9961   10.4571   13.1913 O   0  0  0  0  0  0  0  0  0  0  0  0
   10.6651    8.6795   15.4881 O   0  0  0  0  0  0  0  0  0  0  0  0
   10.7146   15.9876    9.7937 N   0  0  0  0  0  0  0  0  0  0  0  0
   11.9181   13.7564    9.4508 N   0  0  0  0  0  0  0  0  0  0  0  0
    8.7345    3.5937   11.5942 N   0  0  0  0  0  0  0  0  0  0  0  0
    7.7746    2.4094   13.6581 N   0  0  0  0  0  0  0  0  0  0  0  0
    9.8498   17.0006   10.2223 C   0  0  0  0  0  0  0  0  0  0  0  0
    8.4676   16.8086   10.1208 C   0  0  0  0  0  0  0  0  0  0  0  0
    7.5920   17.7825   10.5590 C   0  0  0  0  0  0  0  0  0  0  0  0
    8.0751   18.9655   11.0966 C   0  0  0  0  0  0  0  0  0  0  0  0
    9.4433   19.1592   11.2101 C   0  0  0  0  0  0  0  0  0  0  0  0
   10.3253   18.1821   10.7898 C   0  0  0  0  0  0  0  0  0  0  0  0
   10.4602   15.3910    8.6771 C   0  0  0  0  0  0  0  0  0  0  0  0
   11.1348   14.1543    8.4268 C   0  0  0  0  0  0  0  0  0  0  0  0
   10.9223   13.3426    7.3092 C   0  0  0  0  0  0  0  0  0  0  0  0
   11.4709   12.0786    7.2825 C   0  0  0  0  0  0  0  0  0  0  0  0
   12.2381   11.6423    8.3692 C   0  0  0  0  0  0  0  0  0  0  0  0
   12.4526   12.5466    9.4101 C   0  0  0  0  0  0  0  0  0  0  0  0
   14.2965   11.8858   14.6602 C   0  0  0  0  0  0  0  0  0  0  0  0
   14.8781   12.1055   15.8880 C   0  0  0  0  0  0  0  0  0  0  0  0
   14.8055   11.1545   16.9199 C   0  0  0  0  0  0  0  0  0  0  0  0
   15.3805   11.3900   18.1874 C   0  0  0  0  0  0  0  0  0  0  0  0
   15.3311   10.4326   19.1620 C   0  0  0  0  0  0  0  0  0  0  0  0
   14.7036    9.2028   18.9109 C   0  0  0  0  0  0  0  0  0  0  0  0
   14.1331    8.9460   17.6930 C   0  0  0  0  0  0  0  0  0  0  0  0
   14.1668    9.9112   16.6666 C   0  0  0  0  0  0  0  0  0  0  0  0
   13.5860    9.6777   15.3879 C   0  0  0  0  0  0  0  0  0  0  0  0
   13.6228   10.6564   14.4201 C   0  0  0  0  0  0  0  0  0  0  0  0
   13.8089    9.8507   12.2060 C   0  0  0  0  0  0  0  0  0  0  0  0
   13.0716    8.3131   15.0838 C   0  0  0  0  0  0  0  0  0  0  0  0
   14.0751    7.3626   14.7162 C   0  0  0  0  0  0  0  0  0  0  0  0
   15.4425    7.7072   14.6400 C   0  0  0  0  0  0  0  0  0  0  0  0
   16.3856    6.7812   14.2833 C   0  0  0  0  0  0  0  0  0  0  0  0
   16.0180    5.4632   13.9772 C   0  0  0  0  0  0  0  0  0  0  0  0
   14.7039    5.0950   14.0396 C   0  0  0  0  0  0  0  0  0  0  0  0
   13.7112    6.0263   14.4099 C   0  0  0  0  0  0  0  0  0  0  0  0
   12.3585    5.6590   14.5061 C   0  0  0  0  0  0  0  0  0  0  0  0
   11.4019    6.5584   14.8999 C   0  0  0  0  0  0  0  0  0  0  0  0
   11.7540    7.9179   15.1778 C   0  0  0  0  0  0  0  0  0  0  0  0
   10.7803   10.0306   15.8679 C   0  0  0  0  0  0  0  0  0  0  0  0
    9.2399    4.2914   10.5885 C   0  0  0  0  0  0  0  0  0  0  0  0
   10.2101    3.7903    9.7191 C   0  0  0  0  0  0  0  0  0  0  0  0
   10.6362    2.4692    9.9163 C   0  0  0  0  0  0  0  0  0  0  0  0
   10.1459    1.7517   10.9849 C   0  0  0  0  0  0  0  0  0  0  0  0
    9.2052    2.3498   11.8262 C   0  0  0  0  0  0  0  0  0  0  0  0
    8.7085    1.7706   13.0376 C   0  0  0  0  0  0  0  0  0  0  0  0
    7.4754    2.0456   14.9760 C   0  0  0  0  0  0  0  0  0  0  0  0
    8.5212    1.8502   15.8838 C   0  0  0  0  0  0  0  0  0  0  0  0
    8.2529    1.5162   17.1968 C   0  0  0  0  0  0  0  0  0  0  0  0
    6.9432    1.3599   17.6235 C   0  0  0  0  0  0  0  0  0  0  0  0
    5.9014    1.5549   16.7297 C   0  0  0  0  0  0  0  0  0  0  0  0
    6.1608    1.9066   15.4186 C   0  0  0  0  0  0  0  0  0  0  0  0
   10.7224    9.4665    7.9527 O   0  0  0  0  0  0  0  0  0  0  0  0
   11.0802    6.4749   10.1433 O   0  0  0  0  0  0  0  0  0  0  0  0
   13.5996   15.7504    9.8003 N   0  0  0  0  0  0  0  0  0  0  0  0
   13.4896   14.1736   11.8218 N   0  0  0  0  0  0  0  0  0  0  0  0
    8.1509    4.9799   14.0463 N   0  0  0  0  0  0  0  0  0  0  0  0
    5.6705    4.3953   13.8477 N   0  0  0  0  0  0  0  0  0  0  0  0
   13.5906   16.2690    8.5002 C   0  0  0  0  0  0  0  0  0  0  0  0
   12.7939   17.3580    8.1499 C   0  0  0  0  0  0  0  0  0  0  0  0
   12.8067   17.8419    6.8554 C   0  0  0  0  0  0  0  0  0  0  0  0
   13.5925   17.2359    5.8871 C   0  0  0  0  0  0  0  0  0  0  0  0
   14.3714   16.1391    6.2221 C   0  0  0  0  0  0  0  0  0  0  0  0
   14.3779   15.6604    7.5176 C   0  0  0  0  0  0  0  0  0  0  0  0
   14.7356   15.4631   10.3408 C   0  0  0  0  0  0  0  0  0  0  0  0
   14.7129   14.6634   11.5280 C   0  0  0  0  0  0  0  0  0  0  0  0
   15.8377   14.3355   12.2880 C   0  0  0  0  0  0  0  0  0  0  0  0
   15.6990   13.4556   13.3383 C   0  0  0  0  0  0  0  0  0  0  0  0
   14.4456   12.8834   13.5974 C   0  0  0  0  0  0  0  0  0  0  0  0
   13.3715   13.2981   12.8082 C   0  0  0  0  0  0  0  0  0  0  0  0
   12.8340   10.3035    8.4330 C   0  0  0  0  0  0  0  0  0  0  0  0
   14.1641   10.1718    8.7369 C   0  0  0  0  0  0  0  0  0  0  0  0
   14.7893    8.9136    8.7505 C   0  0  0  0  0  0  0  0  0  0  0  0
   16.1664    8.7772    9.0240 C   0  0  0  0  0  0  0  0  0  0  0  0
   16.7637    7.5486    9.0050 C   0  0  0  0  0  0  0  0  0  0  0  0
   16.0002    6.4095    8.7129 C   0  0  0  0  0  0  0  0  0  0  0  0
   14.6606    6.5118    8.4501 C   0  0  0  0  0  0  0  0  0  0  0  0
   14.0099    7.7651    8.4582 C   0  0  0  0  0  0  0  0  0  0  0  0
   12.6116    7.8969    8.1871 C   0  0  0  0  0  0  0  0  0  0  0  0
   12.0314    9.1476    8.1696 C   0  0  0  0  0  0  0  0  0  0  0  0
    9.7675    8.4978    7.5882 C   0  0  0  0  0  0  0  0  0  0  0  0
   11.9108    6.6161    7.8909 C   0  0  0  0  0  0  0  0  0  0  0  0
   12.0359    6.0643    6.5844 C   0  0  0  0  0  0  0  0  0  0  0  0
   12.6640    6.7620    5.5333 C   0  0  0  0  0  0  0  0  0  0  0  0
   12.7688    6.2014    4.2885 C   0  0  0  0  0  0  0  0  0  0  0  0
   12.2516    4.9218    4.0344 C   0  0  0  0  0  0  0  0  0  0  0  0
   11.6366    4.2190    5.0328 C   0  0  0  0  0  0  0  0  0  0  0  0
   11.5155    4.7677    6.3277 C   0  0  0  0  0  0  0  0  0  0  0  0
   10.9237    4.0507    7.3814 C   0  0  0  0  0  0  0  0  0  0  0  0
   10.7827    4.5958    8.6371 C   0  0  0  0  0  0  0  0  0  0  0  0
   11.2682    5.9100    8.8833 C   0  0  0  0  0  0  0  0  0  0  0  0
   12.1382    6.2530   11.0546 C   0  0  0  0  0  0  0  0  0  0  0  0
    9.4112    5.3817   14.0180 C   0  0  0  0  0  0  0  0  0  0  0  0
   10.0109    6.1156   15.0421 C   0  0  0  0  0  0  0  0  0  0  0  0
    9.2453    6.3740   16.1852 C   0  0  0  0  0  0  0  0  0  0  0  0
    7.9356    5.9472   16.2297 C   0  0  0  0  0  0  0  0  0  0  0  0
    7.3995    5.2763   15.1272 C   0  0  0  0  0  0  0  0  0  0  0  0
    6.0142    4.9624   14.9557 C   0  0  0  0  0  0  0  0  0  0  0  0
    4.3160    4.3746   13.4979 C   0  0  0  0  0  0  0  0  0  0  0  0
    3.7159    3.2426   12.9481 C   0  0  0  0  0  0  0  0  0  0  0  0
    2.3788    3.2607   12.5998 C   0  0  0  0  0  0  0  0  0  0  0  0
    1.6251    4.4120   12.7693 C   0  0  0  0  0  0  0  0  0  0  0  0
    2.2191    5.5502   13.2920 C   0  0  0  0  0  0  0  0  0  0  0  0
    3.5505    5.5346   13.6586 C   0  0  0  0  0  0  0  0  0  0  0  0
   12.1918   16.3897   12.2621 N   0  0  0  0  0  0  0  0  0  0  0  0
   10.6303   14.4169   11.8704 N   0  0  0  0  0  0  0  0  0  0  0  0
    6.6480    5.5519   11.7306 N   0  0  0  0  0  0  0  0  0  0  0  0
    6.1946    3.0819   11.3114 N   0  0  0  0  0  0  0  0  0  0  0  0
   13.2885   17.1835   12.6134 C   0  0  0  0  0  0  0  0  0  0  0  0
   13.9117   18.0283   11.6948 C   0  0  0  0  0  0  0  0  0  0  0  0
   15.0056   18.7836   12.0729 C   0  0  0  0  0  0  0  0  0  0  0  0
   15.5118   18.6908   13.3604 C   0  0  0  0  0  0  0  0  0  0  0  0
   14.9132   17.8363   14.2736 C   0  0  0  0  0  0  0  0  0  0  0  0
   13.8084   17.0923   13.9095 C   0  0  0  0  0  0  0  0  0  0  0  0
   11.2038   16.3025   13.0908 C   0  0  0  0  0  0  0  0  0  0  0  0
   10.2623   15.2483   12.8687 C   0  0  0  0  0  0  0  0  0  0  0  0
    9.1230   15.0084   13.6414 C   0  0  0  0  0  0  0  0  0  0  0  0
    8.3734   13.8757   13.4017 C   0  0  0  0  0  0  0  0  0  0  0  0
    8.7735   12.9966   12.3888 C   0  0  0  0  0  0  0  0  0  0  0  0
    9.9062   13.3321   11.6504 C   0  0  0  0  0  0  0  0  0  0  0  0
    6.9880    6.8096   11.9583 C   0  0  0  0  0  0  0  0  0  0  0  0
    6.4454    7.8930   11.2710 C   0  0  0  0  0  0  0  0  0  0  0  0
    5.4686    7.6272   10.3047 C   0  0  0  0  0  0  0  0  0  0  0  0
    5.1068    6.3188   10.0592 C   0  0  0  0  0  0  0  0  0  0  0  0
    5.7270    5.2934   10.7779 C   0  0  0  0  0  0  0  0  0  0  0  0
    5.5521    3.8937   10.5377 C   0  0  0  0  0  0  0  0  0  0  0  0
    6.3065    1.7418   10.9272 C   0  0  0  0  0  0  0  0  0  0  0  0
    6.6287    1.4368    9.5999 C   0  0  0  0  0  0  0  0  0  0  0  0
    6.7812    0.1234    9.2015 C   0  0  0  0  0  0  0  0  0  0  0  0
    6.6053   -0.9076   10.1117 C   0  0  0  0  0  0  0  0  0  0  0  0
    6.2910   -0.6137   11.4298 C   0  0  0  0  0  0  0  0  0  0  0  0
    6.1550    0.6986   11.8409 C   0  0  0  0  0  0  0  0  0  0  0  0
    6.9463    9.2404   11.5600 C   0  0  0  0  0  0  0  0  0  0  0  0
    7.2747   10.1083   10.5201 C   0  0  0  0  0  0  0  0  0  0  0  0
    7.8564   11.3303   10.7878 C   0  0  0  0  0  0  0  0  0  0  0  0
    8.0848   11.7341   12.1030 C   0  0  0  0  0  0  0  0  0  0  0  0
    7.7004   10.8913   13.1445 C   0  0  0  0  0  0  0  0  0  0  0  0
    7.1583    9.6515   12.8757 C   0  0  0  0  0  0  0  0  0  0  0  0
    8.0910   15.8769    9.7226 H   0  0  0  0  0  0  0  0  0  0  0  0
    6.5288   17.6209   10.4745 H   0  0  0  0  0  0  0  0  0  0  0  0
    7.3905   19.7311   11.4241 H   0  0  0  0  0  0  0  0  0  0  0  0
    9.8257   20.0800   11.6214 H   0  0  0  0  0  0  0  0  0  0  0  0
   11.3858   18.3476   10.8725 H   0  0  0  0  0  0  0  0  0  0  0  0
    9.7086   15.7526    7.9825 H   0  0  0  0  0  0  0  0  0  0  0  0
   10.3238   13.7082    6.4904 H   0  0  0  0  0  0  0  0  0  0  0  0
   11.3138   11.4294    6.4369 H   0  0  0  0  0  0  0  0  0  0  0  0
   13.0495   12.2592   10.2626 H   0  0  0  0  0  0  0  0  0  0  0  0
   15.3858   13.0388   16.0819 H   0  0  0  0  0  0  0  0  0  0  0  0
   15.8635   12.3377   18.3706 H   0  0  0  0  0  0  0  0  0  0  0  0
   15.7745   10.6144   20.1280 H   0  0  0  0  0  0  0  0  0  0  0  0
   14.6753    8.4558   19.6886 H   0  0  0  0  0  0  0  0  0  0  0  0
   13.6548    7.9960   17.5060 H   0  0  0  0  0  0  0  0  0  0  0  0
   14.6688   10.4837   11.9585 H   0  0  0  0  0  0  0  0  0  0  0  0
   14.1748    8.8727   12.5295 H   0  0  0  0  0  0  0  0  0  0  0  0
   13.1804    9.7269   11.3257 H   0  0  0  0  0  0  0  0  0  0  0  0
   15.7520    8.7131   14.8788 H   0  0  0  0  0  0  0  0  0  0  0  0
   17.4263    7.0626   14.2447 H   0  0  0  0  0  0  0  0  0  0  0  0
   16.7771    4.7471   13.7057 H   0  0  0  0  0  0  0  0  0  0  0  0
   14.4042    4.0813   13.8194 H   0  0  0  0  0  0  0  0  0  0  0  0
   12.0827    4.6318   14.3158 H   0  0  0  0  0  0  0  0  0  0  0  0
   11.1086   10.6532   15.0319 H   0  0  0  0  0  0  0  0  0  0  0  0
   11.4565   10.1619   16.7147 H   0  0  0  0  0  0  0  0  0  0  0  0
    9.7741   10.3239   16.1679 H   0  0  0  0  0  0  0  0  0  0  0  0
    8.8629    5.2945   10.4597 H   0  0  0  0  0  0  0  0  0  0  0  0
   11.3689    2.0357    9.2537 H   0  0  0  0  0  0  0  0  0  0  0  0
   10.4781    0.7455   11.1822 H   0  0  0  0  0  0  0  0  0  0  0  0
    9.1588    0.8661   13.4344 H   0  0  0  0  0  0  0  0  0  0  0  0
    9.5405    1.9915   15.5536 H   0  0  0  0  0  0  0  0  0  0  0  0
    9.0686    1.3694   17.8871 H   0  0  0  0  0  0  0  0  0  0  0  0
    6.7359    1.0844   18.6449 H   0  0  0  0  0  0  0  0  0  0  0  0
    4.8809    1.4237   17.0535 H   0  0  0  0  0  0  0  0  0  0  0  0
    5.3453    2.0402   14.7281 H   0  0  0  0  0  0  0  0  0  0  0  0
   12.1928   17.8460    8.8983 H   0  0  0  0  0  0  0  0  0  0  0  0
   12.2072   18.7024    6.6031 H   0  0  0  0  0  0  0  0  0  0  0  0
   13.6004   17.6180    4.8791 H   0  0  0  0  0  0  0  0  0  0  0  0
   14.9826   15.6601    5.4734 H   0  0  0  0  0  0  0  0  0  0  0  0
   14.9698   14.7942    7.7769 H   0  0  0  0  0  0  0  0  0  0  0  0
   15.6826   15.7503    9.8948 H   0  0  0  0  0  0  0  0  0  0  0  0
   16.7943   14.7681   12.0436 H   0  0  0  0  0  0  0  0  0  0  0  0
   16.5514   13.1782   13.9386 H   0  0  0  0  0  0  0  0  0  0  0  0
   12.3829   12.9036   12.9872 H   0  0  0  0  0  0  0  0  0  0  0  0
   14.7627   11.0530    8.9174 H   0  0  0  0  0  0  0  0  0  0  0  0
   16.7412    9.6666    9.2350 H   0  0  0  0  0  0  0  0  0  0  0  0
   17.8190    7.4475    9.2014 H   0  0  0  0  0  0  0  0  0  0  0  0
   16.4799    5.4436    8.6871 H   0  0  0  0  0  0  0  0  0  0  0  0
   14.0968    5.6207    8.2205 H   0  0  0  0  0  0  0  0  0  0  0  0
   10.0692    7.9397    6.6997 H   0  0  0  0  0  0  0  0  0  0  0  0
    9.5673    7.8058    8.4098 H   0  0  0  0  0  0  0  0  0  0  0  0
    8.8649    9.0656    7.3612 H   0  0  0  0  0  0  0  0  0  0  0  0
   13.0672    7.7459    5.7221 H   0  0  0  0  0  0  0  0  0  0  0  0
   13.2537    6.7430    3.4915 H   0  0  0  0  0  0  0  0  0  0  0  0
   12.3458    4.4981    3.0473 H   0  0  0  0  0  0  0  0  0  0  0  0
   11.2389    3.2329    4.8473 H   0  0  0  0  0  0  0  0  0  0  0  0
   10.5526    3.0558    7.1835 H   0  0  0  0  0  0  0  0  0  0  0  0
   11.8703    6.7819   11.9678 H   0  0  0  0  0  0  0  0  0  0  0  0
   13.0867    6.6428   10.6761 H   0  0  0  0  0  0  0  0  0  0  0  0
   12.2576    5.1849   11.2694 H   0  0  0  0  0  0  0  0  0  0  0  0
    9.9673    5.1473   13.1227 H   0  0  0  0  0  0  0  0  0  0  0  0
    9.6796    6.9015   17.0184 H   0  0  0  0  0  0  0  0  0  0  0  0
    7.3175    6.1330   17.0932 H   0  0  0  0  0  0  0  0  0  0  0  0
    5.2881    5.2697   15.7016 H   0  0  0  0  0  0  0  0  0  0  0  0
    4.2890    2.3400   12.8228 H   0  0  0  0  0  0  0  0  0  0  0  0
    1.9207    2.3695   12.2008 H   0  0  0  0  0  0  0  0  0  0  0  0
    0.5822    4.4217   12.4966 H   0  0  0  0  0  0  0  0  0  0  0  0
    1.6411    6.4519   13.4205 H   0  0  0  0  0  0  0  0  0  0  0  0
    4.0198    6.4284   14.0449 H   0  0  0  0  0  0  0  0  0  0  0  0
   13.5199   18.1184   10.6954 H   0  0  0  0  0  0  0  0  0  0  0  0
   15.4611   19.4539   11.3613 H   0  0  0  0  0  0  0  0  0  0  0  0
   16.3652   19.2821   13.6508 H   0  0  0  0  0  0  0  0  0  0  0  0
   15.3040   17.7558   15.2758 H   0  0  0  0  0  0  0  0  0  0  0  0
   13.3544   16.4084   14.6129 H   0  0  0  0  0  0  0  0  0  0  0  0
   11.1134   16.9448   13.9606 H   0  0  0  0  0  0  0  0  0  0  0  0
    8.8456   15.7067   14.4142 H   0  0  0  0  0  0  0  0  0  0  0  0
    7.4843   13.6732   13.9779 H   0  0  0  0  0  0  0  0  0  0  0  0
   10.2544   12.6693   10.8729 H   0  0  0  0  0  0  0  0  0  0  0  0
    7.7562    6.9753   12.6982 H   0  0  0  0  0  0  0  0  0  0  0  0
    4.9988    8.4370    9.7690 H   0  0  0  0  0  0  0  0  0  0  0  0
    4.3584    6.0770    9.3221 H   0  0  0  0  0  0  0  0  0  0  0  0
    4.9581    3.5514    9.6967 H   0  0  0  0  0  0  0  0  0  0  0  0
    6.7887    2.2425    8.8973 H   0  0  0  0  0  0  0  0  0  0  0  0
    7.0302   -0.0974    8.1755 H   0  0  0  0  0  0  0  0  0  0  0  0
    6.7100   -1.9329    9.7955 H   0  0  0  0  0  0  0  0  0  0  0  0
    6.1438   -1.4120   12.1401 H   0  0  0  0  0  0  0  0  0  0  0  0
    5.8986    0.9140   12.8647 H   0  0  0  0  0  0  0  0  0  0  0  0
    7.1067    9.8061    9.4979 H   0  0  0  0  0  0  0  0  0  0  0  0
    8.1199   11.9857    9.9712 H   0  0  0  0  0  0  0  0  0  0  0  0
    7.8624   11.1958   14.1670 H   0  0  0  0  0  0  0  0  0  0  0  0
    6.8794    9.0028   13.6925 H   0  0  0  0  0  0  0  0  0  0  0  0
  1 58  1  0  0  0  0
  1108  1  0  0  0  0
  1107  1  0  0  0  0
  2  8  1  0  0  0  0
  2 60  1  0  0  0  0
  2 59  1  0  0  0  0
  3 30  1  0  0  0  0
  4 42  1  0  0  0  0
  5  9  1  0  0  0  0
  5  1  1  0  0  0  0
  6  1  1  0  0  0  0
  7 47  1  0  0  0  0
  7  2  1  0  0  0  0
  8 49  1  0  0  0  0
  9 14  1  0  0  0  0
 10  9  2  0  0  0  0
 10 11  1  0  0  0  0
 11 12  2  0  0  0  0
 12 13  1  0  0  0  0
 12143  1  0  0  0  0
 13144  1  0  0  0  0
 14145  1  0  0  0  0
 14 13  2  0  0  0  0
 15  5  1  0  0  0  0
 16 15  2  0  0  0  0
 16  6  1  0  0  0  0
 17 16  1  0  0  0  0
 18 17  2  0  0  0  0
 18 19  1  0  0  0  0
 19 73  1  0  0  0  0
 19 20  2  0  0  0  0
 20  6  1  0  0  0  0
 20149  1  0  0  0  0
 21 22  1  0  0  0  0
 22150  1  0  0  0  0
 22 23  2  0  0  0  0
 23 24  1  0  0  0  0
 24151  1  0  0  0  0
 24 25  2  0  0  0  0
 25152  1  0  0  0  0
 26 25  1  0  0  0  0
 26153  1  0  0  0  0
 27 26  2  0  0  0  0
 28 23  1  0  0  0  0
 28 27  1  0  0  0  0
 29 28  2  0  0  0  0
 30 21  2  0  0  0  0
 30 29  1  0  0  0  0
 31156  1  0  0  0  0
 31  3  1  0  0  0  0
 32 41  1  0  0  0  0
 32 29  1  0  0  0  0
 33 32  2  0  0  0  0
 34 33  1  0  0  0  0
 34158  1  0  0  0  0
 35 34  2  0  0  0  0
 36 37  2  0  0  0  0
 36 35  1  0  0  0  0
 37 38  1  0  0  0  0
 38 39  2  0  0  0  0
 38 33  1  0  0  0  0
 39 40  1  0  0  0  0
 40 96  1  0  0  0  0
 40 41  2  0  0  0  0
 41  4  1  0  0  0  0
 42165  1  0  0  0  0
 42164  1  0  0  0  0
 43  7  1  0  0  0  0
 44 45  1  0  0  0  0
 44 43  2  0  0  0  0
 45 46  2  0  0  0  0
 46168  1  0  0  0  0
 46 47  1  0  0  0  0
 47 48  2  0  0  0  0
 48169  1  0  0  0  0
 48  8  1  0  0  0  0
 49 54  2  0  0  0  0
 49 50  1  0  0  0  0
 50 51  2  0  0  0  0
 51 52  1  0  0  0  0
 51171  1  0  0  0  0
 52172  1  0  0  0  0
 53173  1  0  0  0  0
 53 52  2  0  0  0  0
 54 53  1  0  0  0  0
 55 82  1  0  0  0  0
 56 94  1  0  0  0  0
 57 67  1  0  0  0  0
 57  1  1  0  0  0  0
 58 72  1  0  0  0  0
 59 99  1  0  0  0  0
 60100  1  0  0  0  0
 61 57  1  0  0  0  0
 62 61  1  0  0  0  0
 62175  1  0  0  0  0
 63 62  2  0  0  0  0
 64 65  2  0  0  0  0
 64 63  1  0  0  0  0
 65 66  1  0  0  0  0
 66179  1  0  0  0  0
 66 61  2  0  0  0  0
 67 68  2  0  0  0  0
 68 58  1  0  0  0  0
 68 69  1  0  0  0  0
 69 70  2  0  0  0  0
 70 71  1  0  0  0  0
 70182  1  0  0  0  0
 71 21  1  0  0  0  0
 72183  1  0  0  0  0
 72 71  2  0  0  0  0
 73 74  2  0  0  0  0
 74 75  1  0  0  0  0
 74184  1  0  0  0  0
 75 76  2  0  0  0  0
 76185  1  0  0  0  0
 77 76  1  0  0  0  0
 77186  1  0  0  0  0
 78 77  2  0  0  0  0
 79 80  2  0  0  0  0
 79 78  1  0  0  0  0
 80 75  1  0  0  0  0
 81 80  1  0  0  0  0
 82 81  2  0  0  0  0
 82 73  1  0  0  0  0
 83 55  1  0  0  0  0
 83190  1  0  0  0  0
 84 81  1  0  0  0  0
 84 93  2  0  0  0  0
 85 84  1  0  0  0  0
 86192  1  0  0  0  0
 86 85  2  0  0  0  0
 87 86  1  0  0  0  0
 88 87  2  0  0  0  0
 88 89  1  0  0  0  0
 89 90  2  0  0  0  0
 90 85  1  0  0  0  0
 90 91  1  0  0  0  0
 91 92  2  0  0  0  0
 92 93  1  0  0  0  0
 92 44  1  0  0  0  0
 93 56  1  0  0  0  0
 94199  1  0  0  0  0
 94197  1  0  0  0  0
 95 59  1  0  0  0  0
 95 96  2  0  0  0  0
 96 97  1  0  0  0  0
 97 98  2  0  0  0  0
 97201  1  0  0  0  0
 98202  1  0  0  0  0
 99 98  1  0  0  0  0
100 99  2  0  0  0  0
100203  1  0  0  0  0
101106  1  0  0  0  0
101 60  1  0  0  0  0
102101  2  0  0  0  0
103104  2  0  0  0  0
103102  1  0  0  0  0
104105  1  0  0  0  0
105207  1  0  0  0  0
105106  2  0  0  0  0
106208  1  0  0  0  0
107111  1  0  0  0  0
107117  1  0  0  0  0
108118  1  0  0  0  0
109123  1  0  0  0  0
109  2  1  0  0  0  0
110  2  1  0  0  0  0
111116  2  0  0  0  0
112113  2  0  0  0  0
112111  1  0  0  0  0
113114  1  0  0  0  0
114211  1  0  0  0  0
114115  2  0  0  0  0
115212  1  0  0  0  0
116115  1  0  0  0  0
116213  1  0  0  0  0
117214  1  0  0  0  0
118117  2  0  0  0  0
118119  1  0  0  0  0
119215  1  0  0  0  0
120119  2  0  0  0  0
120216  1  0  0  0  0
121120  1  0  0  0  0
122108  1  0  0  0  0
122121  2  0  0  0  0
123218  1  0  0  0  0
124135  1  0  0  0  0
124123  2  0  0  0  0
125124  1  0  0  0  0
126125  2  0  0  0  0
126127  1  0  0  0  0
127109  1  0  0  0  0
128127  2  0  0  0  0
128110  1  0  0  0  0
129110  1  0  0  0  0
129134  2  0  0  0  0
130129  1  0  0  0  0
131130  2  0  0  0  0
131132  1  0  0  0  0
132133  2  0  0  0  0
133134  1  0  0  0  0
133225  1  0  0  0  0
134226  1  0  0  0  0
135140  2  0  0  0  0
136137  2  0  0  0  0
136135  1  0  0  0  0
137138  1  0  0  0  0
138121  1  0  0  0  0
138139  2  0  0  0  0
139229  1  0  0  0  0
140139  1  0  0  0  0
140230  1  0  0  0  0
141 10  1  0  0  0  0
142 11  1  0  0  0  0
146 15  1  0  0  0  0
147 17  1  0  0  0  0
148 18  1  0  0  0  0
154 27  1  0  0  0  0
155 31  1  0  0  0  0
157 31  1  0  0  0  0
159 35  1  0  0  0  0
160 36  1  0  0  0  0
161 37  1  0  0  0  0
162 39  1  0  0  0  0
163 42  1  0  0  0  0
166 43  1  0  0  0  0
167 45  1  0  0  0  0
170 50  1  0  0  0  0
174 54  1  0  0  0  0
176 63  1  0  0  0  0
177 64  1  0  0  0  0
178 65  1  0  0  0  0
180 67  1  0  0  0  0
181 69  1  0  0  0  0
187 78  1  0  0  0  0
188 79  1  0  0  0  0
189 83  1  0  0  0  0
191 83  1  0  0  0  0
193 87  1  0  0  0  0
194 88  1  0  0  0  0
195 89  1  0  0  0  0
196 91  1  0  0  0  0
198 94  1  0  0  0  0
200 95  1  0  0  0  0
204102  1  0  0  0  0
205103  1  0  0  0  0
206104  1  0  0  0  0
209112  1  0  0  0  0
210113  1  0  0  0  0
217122  1  0  0  0  0
219125  1  0  0  0  0
220126  1  0  0  0  0
221128  1  0  0  0  0
222130  1  0  0  0  0
223131  1  0  0  0  0
224132  1  0  0  0  0
227136  1  0  0  0  0
228137  1  0  0  0  0
M  END
