162

Pd -0.119600 7.047600 -0.067900
Pd 0.028400 -6.744600 -0.001000
C 4.741200 2.952200 0.055800
C 4.807400 4.129100 0.331400
C 5.077500 5.462300 0.691200
C 6.386500 5.797400 0.999400
C 6.735500 7.095900 1.377700
C 5.783400 8.081200 1.458200
C 4.442800 7.786800 1.154300
C 3.423500 8.762600 1.218800
C 2.141900 8.425900 0.901100
N 1.793300 7.168500 0.521500
C 2.715400 6.226900 0.458900
C 4.067400 6.467800 0.762200
H 7.150100 5.037000 0.942900
H 7.766100 7.317700 1.608500
H 6.048200 9.084600 1.751900
H 3.671100 9.769000 1.516300
H 1.341400 9.163000 0.948000
H 2.389000 5.236800 0.154800
C 4.675800 1.569200 -0.200600
C 3.568000 0.992600 -0.831200
C 3.507900 -0.372300 -1.004600
C 4.553900 -1.188400 -0.554800
C 5.682900 -0.608700 0.033400
C 5.741100 0.756400 0.209400
H 2.761500 1.622100 -1.172000
H 2.653400 -0.825400 -1.481600
H 6.496800 -1.235700 0.364400
H 6.603000 1.206000 0.678500
C 4.412700 -2.587100 -0.636300
C 4.228000 -3.782600 -0.651300
C 3.830400 -5.132900 -0.603800
C 4.705400 -6.224000 -0.682400
C 4.183900 -7.503300 -0.593500
C 2.817800 -7.680900 -0.419700
N 1.987800 -6.638600 -0.344500
C 2.469000 -5.400600 -0.439600
H 5.764600 -6.062500 -0.809300
H 4.831200 -8.363400 -0.652900
H 2.370700 -8.666100 -0.337200
H 1.758800 -4.575100 -0.378900
C -0.198400 2.911000 4.765900
C -0.494300 4.082600 4.836800
C -0.878300 5.407600 5.114300
C -1.201700 5.726800 6.423500
C -1.603400 7.016000 6.780500
C -1.691900 8.007900 5.836000
C -1.373300 7.729700 4.495400
C -1.445200 8.713000 3.484000
C -1.113400 8.392000 2.201900
N -0.712600 7.143400 1.845300
C -0.641600 6.195300 2.760000
C -0.957900 6.420200 4.111800
H -1.138800 4.961000 7.181300
H -1.845500 7.225400 7.811100
H -2.003300 9.004400 6.106800
H -1.759700 9.712700 3.737900
H -1.165800 9.135500 1.407600
H -0.320000 5.212700 2.427700
C 0.082500 1.533000 4.694500
C -0.315300 0.708200 5.755200
C -0.114800 -0.653300 5.691300
C 0.486000 -1.217200 4.561000
C 0.923600 -0.388400 3.519700
C 0.725700 0.972800 3.585500
H -0.794100 1.145400 6.618200
H -0.436300 -1.289800 6.501600
H 1.410700 -0.829100 2.664500
H 1.057000 1.612100 2.782800
C 0.592400 -2.613500 4.412900
C 0.628500 -3.807500 4.221300
C 0.604200 -5.155400 3.813700
C 0.702000 -6.251900 4.679900
C 0.635000 -7.528300 4.148100
C 0.463800 -7.697900 2.780500
N 0.370400 -6.650500 1.958900
C 0.444400 -5.415000 2.450200
H 0.826400 -6.096800 5.740300
H 0.709400 -8.392400 4.788400
H 0.398100 -8.680900 2.325700
H 0.369300 -4.584800 1.746700
C -4.882700 2.828300 -0.223800
C -4.969100 3.999800 -0.516000
C -5.264800 5.321900 -0.896200
C -6.574100 5.618200 -1.240400
C -6.949400 6.903800 -1.637100
C -6.023400 7.915000 -1.699500
C -4.683300 7.660000 -1.360100
C -3.690500 8.663600 -1.405600
C -2.407700 8.364100 -1.057100
N -2.032700 7.118300 -0.664500
C -2.929900 6.152200 -0.616200
C -4.281000 6.354300 -0.950500
H -7.317600 4.837200 -1.197300
H -7.979500 7.095100 -1.895800
H -6.308500 8.908900 -2.006200
H -3.959000 9.661500 -1.713700
H -1.627500 9.123500 -1.088900
H -2.583200 5.172900 -0.299600
C -4.794200 1.450400 0.053200
C -3.700200 0.908400 0.736300
C -3.616500 -0.452300 0.932200
C -4.624900 -1.298300 0.452500
C -5.741600 -0.753100 -0.189500
C -5.823300 0.607700 -0.387800
H -2.923000 1.561000 1.100700
H -2.772700 -0.879000 1.450700
H -6.526900 -1.403300 -0.543900
H -6.675400 1.030800 -0.897800
C -4.455300 -2.692400 0.557200
C -4.245400 -3.883300 0.591500
C -3.815000 -5.224200 0.564600
C -4.663800 -6.335500 0.645300
C -4.110100 -7.602400 0.575000
C -2.738300 -7.748000 0.416100
N -1.933300 -6.686500 0.339000
C -2.445800 -5.459800 0.417800
H -5.728000 -6.199000 0.759300
H -4.736700 -8.477600 0.636700
H -2.266600 -8.722800 0.347400
H -1.755400 -4.617600 0.357200
C 0.104000 2.866900 -4.857900
C 0.377700 4.043300 -4.937600
C 0.736300 5.373400 -5.224600
C 1.076000 5.684100 -6.531700
C 1.451600 6.978600 -6.898100
C 1.497100 7.984400 -5.965200
C 1.161900 7.714800 -4.627000
C 1.190900 8.712200 -3.627300
C 0.847400 8.398100 -2.346500
N 0.475300 7.143400 -1.980400
C 0.442800 6.182900 -2.884200
C 0.773600 6.399800 -4.233900
H 1.045900 4.907600 -7.280600
H 1.707200 7.181200 -7.926800
H 1.787500 8.985200 -6.243500
H 1.482600 9.716700 -3.888800
H 0.866700 9.152200 -1.560800
H 0.142400 5.196200 -2.544200
C -0.150900 1.484200 -4.777400
C -0.844400 0.927600 -3.697400
C -1.018900 -0.436500 -3.620800
C -0.507000 -1.271300 -4.622500
C 0.145700 -0.712200 -5.726100
C 0.322600 0.652000 -5.800600
H -1.233900 1.571800 -2.925200
H -1.545400 -0.874200 -2.787600
H 0.525200 -1.354100 -6.506500
H 0.840700 1.086100 -6.642200
C -0.590200 -2.667600 -4.459400
C -0.606000 -3.860000 -4.255600
C -0.558300 -5.203100 -3.834000
C -0.618300 -6.309500 -4.691000
C -0.527900 -7.579100 -4.146400
C -0.369600 -7.731900 -2.775400
N -0.312500 -6.675100 -1.962500
C -0.411100 -5.446200 -2.466100
H -0.731900 -6.167000 -5.754400
H -0.573400 -8.450500 -4.779400
H -0.285300 -8.708700 -2.310500
H -0.366800 -4.608200 -1.769400
