230

Fe        12.15200       15.18600       10.69400
Fe         7.20600        3.85500       12.81100
O         13.35400       10.04900       13.34200
O         10.80000        8.78300       15.54100
N         10.70000       16.14500        9.36600
N         11.92100       13.73100        9.11300
N          8.91500        3.50100       11.52800
N          8.08600        2.04300       13.67100
C          9.95100       17.35700        9.62300
C          8.55900       17.38000        9.46900
C          7.86000       18.55000        9.74000
C          8.53700       19.69500       10.15400
C          9.92100       19.66900       10.30200
C         10.63300       18.50400       10.04100
C         10.45400       15.47100        8.26900
C         11.10100       14.16600        8.09200
C         10.85100       13.37300        6.97100
C         11.41300       12.10100        6.89900
C         12.21900       11.64000        7.94400
C         12.46000       12.48900        9.03700
C         14.20600       11.80400       14.77000
C         14.48200       12.29300       16.02400
C         14.31000       11.47900       17.17200
C         14.60600       11.99100       18.46500
C         14.47200       11.19400       19.57000
C         14.03700        9.85600       19.43200
C         13.74100        9.34500       18.19600
C         13.86800       10.14700       17.02800
C         13.57400        9.63800       15.72100
C         13.73100       10.46300       14.61900
C         14.35100        9.30800       12.66800
C         13.15900        8.22400       15.59000
C         14.18000        7.22200       15.51200
C         15.56300        7.55000       15.55300
C         16.51800        6.57000       15.49200
C         16.14500        5.21000       15.38100
C         14.82100        4.86300       15.33700
C         13.81400        5.86400       15.40500
C         12.44300        5.50400       15.38500
C         11.46100        6.46000       15.48300
C         11.82700        7.84200       15.57800
C         10.47800        9.33000       16.80500
C          9.34700        4.25000       10.48300
C         10.42700        3.84600        9.68200
C         11.07200        2.64000        9.97000
C         10.64700        1.87500       11.05400
C          9.57400        2.32500       11.82500
C          9.12300        1.58900       13.01200
C          7.72000        1.40500       14.91800
C          8.68700        1.16300       15.90300
C          8.31100        0.56400       17.09900
C          6.98400        0.19900       17.31500
C          6.02700        0.43700       16.33200
C          6.38900        1.04100       15.13300
O         10.70600        9.20600        7.86000
O         11.62200        6.43100        9.97000
N         14.03100       15.67000        9.67800
N         13.61500       14.10100       11.86000
N          8.24500        4.86600       14.41300
N          5.60600        4.24600       14.25100
C         14.18600       16.36000        8.41400
C         13.56800       17.60000        8.23500
C         13.70300       18.26500        7.02100
C         14.44400       17.69800        5.98800
C         15.05600       16.46000        6.16900
C         14.93600       15.78700        7.37800
C         15.09400       15.16700       10.25700
C         14.91300       14.33900       11.45500
C         16.00100       13.78100       12.12600
C         15.77000       12.94400       13.21600
C         14.45700       12.67400       13.61100
C         13.39700       13.27100       12.91200
C         12.85200       10.31500        7.89700
C         14.22500       10.25200        7.94800
C         14.90100        9.01000        7.86000
C         16.32200        8.96100        7.87400
C         16.97400        7.76300        7.76600
C         16.23600        6.56300        7.64300
C         14.86700        6.58700        7.63400
C         14.15900        7.81600        7.74000
C         12.72800        7.87500        7.71400
C         12.09400        9.10500        7.78300
C         10.05400        9.09300        6.61000
C         11.97800        6.60600        7.57900
C         11.76300        6.07300        6.26700
C         12.22100        6.73900        5.09700
C         12.00900        6.20000        3.85600
C         11.32500        4.97000        3.71400
C         10.87400        4.30400        4.82100
C         11.08900        4.84200        6.12000
C         10.65000        4.13700        7.26800
C         10.85900        4.64600        8.52800
C         11.52200        5.90400        8.68300
C         12.86600        6.18200       10.59100
C          9.53200        5.29500       14.42800
C         10.06000        6.01800       15.51100
C          9.24000        6.27200       16.61400
C          7.91900        5.83400       16.60800
C          7.43100        5.15700       15.48800
C          6.01500        4.79600       15.36800
C          4.18600        4.04100       14.05100
C          3.73600        2.81000       13.56800
C          2.37600        2.60900       13.36100
C          1.46700        3.62800       13.62900
C          1.91800        4.85600       14.10900
C          3.27400        5.06800       14.32700
N         12.14000       16.59900       12.37700
N         10.42900       14.58900       11.82600
N          6.51000        5.63900       11.85000
N          6.03500        3.09100       11.11100
C         13.19300       17.52400       12.73700
C         13.74200       18.34600       11.75000
C         14.76600       19.22600       12.08100
C         15.24600       19.28600       13.38600
C         14.69800       18.46400       14.36800
C         13.66900       17.58400       14.05300
C         11.08200       16.50700       13.14600
C         10.11700       15.43500       12.87100
C          8.99000       15.22400       13.66600
C          8.20800       14.08800       13.45100
C          8.57600       13.18800       12.45100
C          9.67400       13.48100       11.63100
C          6.86000        6.90900       12.16000
C          6.33000        8.01900       11.48300
C          5.37500        7.79200       10.48600
C          5.02000        6.48900       10.14600
C          5.62000        5.42100       10.81900
C          5.40500        4.02200       10.43400
C          5.97800        1.72200       10.65100
C          6.14300        1.41400        9.29400
C          6.10800        0.08600        8.88400
C          5.90300       -0.93100        9.81300
C          5.73600       -0.62100       11.16000
C          5.77500        0.70200       11.58500
C          6.81300        9.36600       11.80000
C          6.33600       10.47900       11.09900
C          6.87400       11.74100       11.32700
C          7.89400       11.89900       12.26500
C          8.33400       10.80500       13.01500
C          7.79700        9.54900       12.78000
H          8.01200       16.49100        9.13100
H          6.77000       18.57400        9.61700
H          7.98000       20.61900       10.35600
H         10.45500       20.57400       10.61600
H         11.73300       18.49900       10.13900
H          9.75700       15.81500        7.48500
H         10.21500       13.74900        6.15900
H         11.20300       11.44600        6.03600
H         13.09400       12.18100        9.88100
H         14.85600       13.31700       16.15500
H         14.95000       13.02800       18.56200
H         14.70500       11.58100       20.57000
H         13.94800        9.22900       20.32700
H         13.41800        8.30200       18.09000
H         15.19900        9.94500       12.39300
H         14.70800        8.45300       13.25700
H         13.83100        8.95800       11.77100
H         15.85600        8.60300       15.65600
H         17.58300        6.82800       15.53800
H         16.92600        4.44100       15.34100
H         14.52200        3.81100       15.26300
H         12.18000        4.44100       15.31300
H         11.34200        9.79900       17.29300
H         10.05100        8.56200       17.47000
H          9.72200       10.08000       16.55600
H          8.81100        5.19300       10.30100
H         11.90700        2.29800        9.34400
H         11.14700        0.92800       11.30000
H          9.69600        0.69600       13.31600
H          9.73900        1.43300       15.74100
H          9.06500        0.36900       17.87100
H          6.69500       -0.28500       18.25600
H          4.98500        0.13700       16.49800
H          5.62700        1.20600       14.35000
H         12.99600       18.06700        9.05600
H         13.23100       19.24600        6.88200
H         14.55300       18.23100        5.03400
H         15.64600       16.01800        5.35500
H         15.43400       14.81900        7.50900
H         16.12000       15.30600        9.87300
H         17.02600       13.99900       11.79600
H         16.61300       12.50000       13.76200
H         12.34800       13.08600       13.17900
H         14.82100       11.17000        8.03400
H         16.88600        9.89800        7.95800
H         18.07000        7.72000        7.76300
H         16.77600        5.61300        7.54600
H         14.29600        5.65500        7.52200
H         10.29800        9.94700        5.95900
H         10.29500        8.15600        6.09100
H          8.99700        9.11700        6.88600
H         12.76500        7.68600        5.20400
H         12.37300        6.71300        2.95700
H         11.16900        4.55700        2.71000
H         10.35000        3.34500        4.72200
H         10.15100        3.16900        7.13300
H         12.80600        6.77600       11.50700
H         13.71500        6.51500        9.97700
H         12.98200        5.11900       10.83100
H         10.13700        5.05100       13.54300
H          9.63300        6.84800       17.47000
H          7.26100        6.02700       17.46700
H          5.34300        5.04200       16.20900
H          4.44900        1.98800       13.37400
H          2.01900        1.63900       12.99500
H          0.39300        3.46200       13.47000
H          1.19900        5.65500       14.32600
H          3.61200        6.03700       14.71600
H         13.35000       18.32200       10.71700
H         15.19000       19.88300       11.31100
H         16.05100       19.98700       13.64400
H         15.07200       18.51800       15.39800
H         13.24100       16.95100       14.84000
H         10.90100       17.15900       14.01800
H          8.73500       15.93600       14.46300
H          7.32600       13.89500       14.07700
H          9.98400       12.81800       10.81000
H          7.60400        7.03500       12.96800
H          4.92600        8.65600        9.96700
H          4.28600        6.29700        9.35200
H          4.75500        3.81500        9.56600
H          6.29700        2.20400        8.54800
H          6.23200       -0.16000        7.82200
H          5.86500       -1.97700        9.48200
H          5.56200       -1.42200       11.88900
H          5.61600        0.94200       12.65100
H          5.53700       10.34000       10.35200
H          6.49900       12.60400       10.76500
H          9.11400       10.92900       13.77700
H          8.16400        8.68700       13.35800
