
     RDKit          3D

  0  0  0  0  0  0  0  0  0  0999 V3000
M  V30 BEGIN CTAB
M  V30 COUNTS 236 266 0 0 0
M  V30 BEGIN ATOM
M  V30 1 C 7.1782 -4.8426 -0.9337 0
M  V30 2 C 5.9604 -4.6758 -1.5961 0
M  V30 3 C 5.2598 -3.4914 -1.4906 0
M  V30 4 C 5.7283 -2.4409 -0.6976 0
M  V30 5 C 4.9915 -1.1678 -0.6001 0
M  V30 6 C 5.6792 0.0437 -0.5806 0
M  V30 7 C 4.9993 1.2571 -0.4952 0
M  V30 8 C 5.7502 2.5278 -0.4695 0
M  V30 9 C 5.3523 3.5861 0.3491 0
M  V30 10 C 6.0397 4.7843 0.3620 0
M  V30 11 C 7.1758 4.9624 -0.4315 0
M  V30 12 C 7.6062 3.8932 -1.2199 0
M  V30 13 C 6.8960 2.7100 -1.2497 0
M  V30 14 C 3.6055 1.2429 -0.4283 0
M  V30 15 C 2.8942 0.0447 -0.4421 0
M  V30 16 C 1.4187 0.0204 -0.3679 0
M  V30 17 C 0.7606 -0.9087 0.4375 0
M  V30 18 C -0.6200 -0.9551 0.4980 0
M  V30 19 C -1.4002 -0.0712 -0.2443 0
M  V30 20 C -2.8757 -0.0959 -0.1688 0
M  V30 21 C -3.5819 1.1007 -0.0653 0
M  V30 22 C -4.9723 1.1155 0.0061 0
M  V30 23 C -5.7094 2.3882 0.1059 0
M  V30 24 C -6.8871 2.5888 -0.6154 0
M  V30 25 C -7.6013 3.7645 -0.5061 0
M  V30 26 C -7.1529 4.7967 0.3229 0
M  V30 27 C -5.9589 4.6150 1.0226 0
M  V30 28 C -5.2585 3.4294 0.9203 0
M  V30 29 C -5.6607 -0.0957 -0.0212 0
M  V30 30 C -4.9801 -1.3066 -0.1220 0
M  V30 31 C -5.7331 -2.5762 -0.1603 0
M  V30 32 C -5.3916 -3.5884 -1.0578 0
M  V30 33 C -6.0917 -4.7782 -1.0962 0
M  V30 34 C -7.1759 -4.9980 -0.2416 0
M  V30 35 C -7.5369 -3.9803 0.6429 0
M  V30 36 C -6.8222 -2.7993 0.6859 0
M  V30 37 C -3.5872 -1.2938 -0.1964 0
M  V30 38 C -0.7424 0.8590 -1.0489 0
M  V30 39 C 0.6381 0.9046 -1.1101 0
M  V30 40 C 3.6008 -1.1527 -0.5301 0
M  V30 41 C 6.9209 -2.6346 0.0007 0
M  V30 42 C 7.6414 -3.8062 -0.1201 0
M  V30 43 H 5.6020 -5.4680 -2.2361 0
M  V30 44 H 4.3483 -3.3649 -2.0546 0
M  V30 45 H 6.7573 0.0402 -0.6357 0
M  V30 46 H 4.4982 3.4654 0.9975 0
M  V30 47 H 5.7200 5.5767 1.0229 0
M  V30 48 H 8.4756 4.0247 -1.8462 0
M  V30 49 H 7.2208 1.9212 -1.9108 0
M  V30 50 H 3.0655 2.1763 -0.3704 0
M  V30 51 H 1.3383 -1.5881 1.0466 0
M  V30 52 H -1.0986 -1.6717 1.1493 0
M  V30 53 H -3.0382 2.0335 -0.0467 0
M  V30 54 H -7.2400 1.8191 -1.2843 0
M  V30 55 H -8.4948 3.9042 -1.0965 0
M  V30 56 H -5.6169 5.3922 1.6891 0
M  V30 57 H -4.3604 3.2950 1.5043 0
M  V30 58 H -6.7390 -0.0959 0.0360 0
M  V30 59 H -4.5776 -3.4341 -1.7491 0
M  V30 60 H -5.8252 -5.5302 -1.8241 0
M  V30 61 H -8.3522 -4.1478 1.3299 0
M  V30 62 H -7.0974 -2.0442 1.4067 0
M  V30 63 H -3.0505 -2.2279 -0.2728 0
M  V30 64 H -1.3206 1.5388 -1.6569 0
M  V30 65 H 1.1163 1.6201 -1.7628 0
M  V30 66 H 3.0567 -2.0853 -0.5411 0
M  V30 67 H 7.2841 -1.8602 0.6584 0
M  V30 68 H 8.5509 -3.9374 0.4472 0
M  V30 69 Zn 10.0144 6.5597 -0.3120 0 CHG=2
M  V30 70 C 7.9594 10.9375 -0.7843 0
M  V30 71 C 7.2511 9.7471 -0.7108 0
M  V30 72 C 7.9500 8.5479 -0.5693 0
M  V30 73 H 6.1738 9.7430 -0.7668 0
M  V30 74 N 9.2901 8.5140 -0.5003 0
M  V30 75 C 7.2519 7.2778 -0.5098 0
M  V30 76 C 9.9618 9.6538 -0.5688 0
M  V30 77 C 9.3435 10.8905 -0.7108 0
M  V30 78 H 11.0381 9.5837 -0.5026 0
M  V30 79 H 9.9349 11.7905 -0.7619 0
M  V30 80 H 7.4454 11.8795 -0.8966 0
M  V30 81 N 7.8832 6.1674 -0.4703 0
M  V30 82 H 6.1627 7.3194 -0.5427 0
M  V30 83 C 9.9064 6.4164 4.6275 0
M  V30 84 C 10.1660 5.3238 3.8103 0
M  V30 85 C 10.1657 5.5005 2.4286 0
M  V30 86 H 10.3730 4.3537 4.2348 0
M  V30 87 N 9.9150 6.6881 1.8562 0
M  V30 88 C 10.4615 4.3978 1.5246 0
M  V30 89 C 9.6704 7.7247 2.6397 0
M  V30 90 C 9.6565 7.6411 4.0297 0
M  V30 91 H 9.4838 8.6699 2.1496 0
M  V30 92 H 9.4608 8.5201 4.6230 0
M  V30 93 H 9.9069 6.3140 5.7017 0
M  V30 94 N 10.4534 4.5855 0.2719 0
M  V30 95 H 10.6910 3.4385 1.9892 0
M  V30 96 H 10.6846 3.7775 -0.2976 0
M  V30 97 C 14.7723 7.5533 -1.0477 0
M  V30 98 C 13.8677 7.2228 -2.0492 0
M  V30 99 C 12.5409 6.9775 -1.7039 0
M  V30 100 H 14.1840 7.1543 -3.0786 0
M  V30 101 N 12.0992 7.0522 -0.4361 0
M  V30 102 C 11.5528 6.6265 -2.7128 0
M  V30 103 C 12.9652 7.3735 0.5107 0
M  V30 104 C 14.3102 7.6313 0.2564 0
M  V30 105 H 12.5789 7.4355 1.5187 0
M  V30 106 H 14.9742 7.8898 1.0660 0
M  V30 107 H 15.8076 7.7469 -1.2826 0
M  V30 108 N 10.3651 6.3425 -2.3657 0
M  V30 109 H 11.8935 6.6227 -3.7478 0
M  V30 110 H 9.7325 6.1207 -3.1289 0
M  V30 111 Zn 7.2408 -8.0759 -0.9872 0 CHG=2
M  V30 112 C 11.9959 -8.3400 -1.9274 0
M  V30 113 C 11.3011 -7.1547 -1.7342 0
M  V30 114 C 9.9336 -7.2058 -1.4632 0
M  V30 115 H 11.8071 -6.2038 -1.7959 0
M  V30 116 N 9.2690 -8.3702 -1.3826 0
M  V30 117 C 9.1618 -5.9935 -1.2715 0
M  V30 118 C 9.9383 -9.4990 -1.5661 0
M  V30 119 C 11.3004 -9.5368 -1.8405 0
M  V30 120 H 9.3693 -10.4145 -1.4864 0
M  V30 121 H 11.7993 -10.4822 -1.9811 0
M  V30 122 H 13.0537 -8.3307 -2.1402 0
M  V30 123 N 7.8945 -6.0298 -1.1081 0
M  V30 124 H 9.7104 -5.0525 -1.3130 0
M  V30 125 C 7.6103 -8.1512 3.9411 0
M  V30 126 C 6.4665 -7.7896 3.2412 0
M  V30 127 C 6.4921 -7.8160 1.8487 0
M  V30 128 H 5.5679 -7.4992 3.7632 0
M  V30 129 N 7.5862 -8.1701 1.1567 0
M  V30 130 C 5.3144 -7.4774 1.0632 0
M  V30 131 C 8.6720 -8.5128 1.8287 0
M  V30 132 C 8.7338 -8.5222 3.2202 0
M  V30 133 H 9.5338 -8.8013 1.2436 0
M  V30 134 H 9.6423 -8.8191 3.7196 0
M  V30 135 H 7.6207 -8.1483 5.0201 0
M  V30 136 N 5.3585 -7.5311 -0.2017 0
M  V30 137 H 4.4227 -7.1949 1.6238 0
M  V30 138 H 4.4982 -7.2924 -0.6844 0
M  V30 139 C 5.8181 -12.7061 -1.8473 0
M  V30 140 C 5.8725 -11.7043 -2.8082 0
M  V30 141 C 6.2915 -10.4311 -2.4300 0
M  V30 142 H 5.5968 -11.9047 -3.8321 0
M  V30 143 N 6.6490 -10.1348 -1.1689 0
M  V30 144 C 6.3673 -9.3442 -3.3958 0
M  V30 145 C 6.5976 -11.0944 -0.2603 0
M  V30 146 C 6.1878 -12.3937 -0.5489 0
M  V30 147 H 6.8989 -10.8268 0.7429 0
M  V30 148 H 6.1666 -13.1400 0.2293 0
M  V30 149 H 5.4996 -13.7034 -2.1090 0
M  V30 150 N 6.6909 -8.1790 -3.0121 0
M  V30 151 H 6.1317 -9.5940 -4.4302 0
M  V30 152 H 6.7352 -7.4770 -3.7451 0
M  V30 153 Zn -10.0175 -6.6136 -0.4791 0 CHG=2
M  V30 154 C -7.9009 -10.9843 -0.4280 0
M  V30 155 C -7.2120 -9.7811 -0.3897 0
M  V30 156 C -7.9316 -8.5858 -0.3808 0
M  V30 157 H -6.1334 -9.7645 -0.3659 0
M  V30 158 N -9.2735 -8.5667 -0.4063 0
M  V30 159 C -7.2517 -7.3059 -0.3300 0
M  V30 160 C -9.9269 -9.7189 -0.4384 0
M  V30 161 C -9.2874 -10.9527 -0.4515 0
M  V30 162 H -11.0061 -9.6612 -0.4517 0
M  V30 163 H -9.8648 -11.8628 -0.4794 0
M  V30 164 H -7.3707 -11.9240 -0.4385 0
M  V30 165 N -7.8907 -6.2013 -0.2545 0
M  V30 166 H -6.1619 -7.3373 -0.3307 0
M  V30 167 C -11.3161 -6.0418 4.2277 0
M  V30 168 C -11.4756 -5.0752 3.2428 0
M  V30 169 C -11.0455 -5.3559 1.9483 0
M  V30 170 H -11.9273 -4.1223 3.4717 0
M  V30 171 N -10.4841 -6.5299 1.6166 0
M  V30 172 C -11.1789 -4.3787 0.8757 0
M  V30 173 C -10.3368 -7.4467 2.5575 0
M  V30 174 C -10.7343 -7.2496 3.8779 0
M  V30 175 H -9.8871 -8.3823 2.2559 0
M  V30 176 H -10.5932 -8.0304 4.6084 0
M  V30 177 H -11.6412 -5.8557 5.2397 0
M  V30 178 N -10.7266 -4.6436 -0.2777 0
M  V30 179 H -11.6686 -3.4386 1.1317 0
M  V30 180 H -10.8505 -3.9224 -0.9811 0
M  V30 181 C -14.4285 -7.8617 -2.3118 0
M  V30 182 C -13.3191 -7.5223 -3.0761 0
M  V30 183 C -12.1256 -7.2087 -2.4296 0
M  V30 184 H -13.3773 -7.4987 -4.1533 0
M  V30 185 N -12.0047 -7.2241 -1.0912 0
M  V30 186 C -10.9373 -6.8416 -3.1842 0
M  V30 187 C -13.0636 -7.5558 -0.3709 0
M  V30 188 C -14.2960 -7.8808 -0.9326 0
M  V30 189 H -12.9326 -7.5700 0.7024 0
M  V30 190 H -15.1278 -8.1440 -0.2985 0
M  V30 191 H -15.3682 -8.1062 -2.7827 0
M  V30 192 N -9.8725 -6.5102 -2.5771 0
M  V30 193 H -11.0252 -6.8684 -4.2701 0
M  V30 194 H -9.0908 -6.2677 -3.1782 0
M  V30 195 Zn -7.3055 8.0467 0.1788 0 CHG=2
M  V30 196 C -12.0768 8.2056 1.0272 0
M  V30 197 C -11.3365 7.0369 0.9235 0
M  V30 198 C -9.9618 7.1214 0.7023 0
M  V30 199 H -11.8134 6.0731 1.0127 0
M  V30 200 N -9.3317 8.3021 0.5884 0
M  V30 201 C -9.1472 5.9275 0.5964 0
M  V30 202 C -10.0433 9.4152 0.6928 0
M  V30 203 C -11.4159 9.4196 0.9111 0
M  V30 204 H -9.4996 10.3449 0.6018 0
M  V30 205 H -11.9497 10.3533 0.9871 0
M  V30 206 H -13.1422 8.1707 1.1950 0
M  V30 207 N -7.8767 5.9865 0.4615 0
M  V30 208 H -9.6708 4.9741 0.6651 0
M  V30 209 C -5.4536 8.7903 4.6775 0
M  V30 210 C -4.6946 8.4837 3.5552 0
M  V30 211 C -5.3420 8.2841 2.3385 0
M  V30 212 H -3.6205 8.4018 3.6196 0
M  V30 213 N -6.6748 8.3793 2.2111 0
M  V30 214 C -4.6006 7.9522 1.1289 0
M  V30 215 C -7.3924 8.6724 3.2817 0
M  V30 216 C -6.8287 8.8853 4.5377 0
M  V30 217 H -8.4617 8.7459 3.1431 0
M  V30 218 H -7.4578 9.1231 5.3807 0
M  V30 219 H -4.9820 8.9525 5.6344 0
M  V30 220 N -5.2227 7.7340 0.0477 0
M  V30 221 H -3.5150 7.8988 1.2230 0
M  V30 222 H -4.6513 7.5030 -0.7586 0
M  V30 223 C -6.6657 12.5814 -1.6693 0
M  V30 224 C -7.0058 11.4612 -2.4173 0
M  V30 225 C -7.1613 10.2390 -1.7672 0
M  V30 226 H -7.1486 11.5325 -3.4844 0
M  V30 227 N -6.9958 10.1020 -0.4409 0
M  V30 228 C -7.5129 9.0347 -2.5054 0
M  V30 229 C -6.6768 11.1742 0.2649 0
M  V30 230 C -6.4991 12.4338 -0.3016 0
M  V30 231 H -6.5601 11.0333 1.3307 0
M  V30 232 H -6.2410 13.2760 0.3206 0
M  V30 233 H -6.5383 13.5424 -2.1435 0
M  V30 234 N -7.6034 7.9220 -1.9018 0
M  V30 235 H -7.6830 9.1536 -3.5752 0
M  V30 236 H -7.8524 7.1313 -2.4885 0
M  V30 END ATOM
M  V30 BEGIN BOND
M  V30 1 2 1 2
M  V30 2 1 2 3
M  V30 3 2 3 4
M  V30 4 1 4 5
M  V30 5 2 5 6
M  V30 6 1 6 7
M  V30 7 1 7 8
M  V30 8 2 8 9
M  V30 9 1 9 10
M  V30 10 2 10 11
M  V30 11 1 11 12
M  V30 12 2 12 13
M  V30 13 2 7 14
M  V30 14 1 14 15
M  V30 15 1 15 16
M  V30 16 2 16 17
M  V30 17 1 17 18
M  V30 18 2 18 19
M  V30 19 1 19 20
M  V30 20 2 20 21
M  V30 21 1 21 22
M  V30 22 1 22 23
M  V30 23 2 23 24
M  V30 24 1 24 25
M  V30 25 2 25 26
M  V30 26 1 26 27
M  V30 27 2 27 28
M  V30 28 2 22 29
M  V30 29 1 29 30
M  V30 30 1 30 31
M  V30 31 2 31 32
M  V30 32 1 32 33
M  V30 33 2 33 34
M  V30 34 1 34 35
M  V30 35 2 35 36
M  V30 36 2 30 37
M  V30 37 1 19 38
M  V30 38 2 38 39
M  V30 39 2 15 40
M  V30 40 1 4 41
M  V30 41 2 41 42
M  V30 42 1 42 1
M  V30 43 1 40 5
M  V30 44 1 13 8
M  V30 45 1 39 16
M  V30 46 1 37 20
M  V30 47 1 28 23
M  V30 48 1 36 31
M  V30 49 1 2 43
M  V30 50 1 3 44
M  V30 51 1 6 45
M  V30 52 1 9 46
M  V30 53 1 10 47
M  V30 54 1 12 48
M  V30 55 1 13 49
M  V30 56 1 14 50
M  V30 57 1 17 51
M  V30 58 1 18 52
M  V30 59 1 21 53
M  V30 60 1 24 54
M  V30 61 1 25 55
M  V30 62 1 27 56
M  V30 63 1 28 57
M  V30 64 1 29 58
M  V30 65 1 32 59
M  V30 66 1 33 60
M  V30 67 1 35 61
M  V30 68 1 36 62
M  V30 69 1 37 63
M  V30 70 1 38 64
M  V30 71 1 39 65
M  V30 72 1 40 66
M  V30 73 1 41 67
M  V30 74 1 42 68
M  V30 75 1 70 80
M  V30 76 2 70 77
M  V30 77 1 71 70
M  V30 78 2 72 71
M  V30 79 1 72 74
M  V30 80 1 73 71
M  V30 81 2 74 76
M  V30 82 1 75 72
M  V30 83 1 76 77
M  V30 84 1 76 78
M  V30 85 1 77 79
M  V30 86 2 81 75
M  V30 87 1 82 75
M  V30 88 1 83 93
M  V30 89 2 83 90
M  V30 90 1 84 83
M  V30 91 2 85 84
M  V30 92 1 85 87
M  V30 93 1 86 84
M  V30 94 2 87 89
M  V30 95 1 88 85
M  V30 96 1 89 90
M  V30 97 1 89 91
M  V30 98 1 90 92
M  V30 99 2 94 88
M  V30 100 1 95 88
M  V30 101 1 96 94
M  V30 102 1 97 107
M  V30 103 2 97 104
M  V30 104 1 98 97
M  V30 105 2 99 98
M  V30 106 1 99 101
M  V30 107 1 100 98
M  V30 108 2 101 103
M  V30 109 1 102 99
M  V30 110 1 103 104
M  V30 111 1 103 105
M  V30 112 1 104 106
M  V30 113 2 108 102
M  V30 114 1 109 102
M  V30 115 1 110 108
M  V30 116 9 81 69
M  V30 117 9 74 69
M  V30 118 9 108 69
M  V30 119 9 101 69
M  V30 120 9 94 69
M  V30 121 9 87 69
M  V30 122 1 112 122
M  V30 123 2 112 119
M  V30 124 1 113 112
M  V30 125 2 114 113
M  V30 126 1 114 116
M  V30 127 1 115 113
M  V30 128 2 116 118
M  V30 129 1 117 114
M  V30 130 1 118 119
M  V30 131 1 118 120
M  V30 132 1 119 121
M  V30 133 2 123 117
M  V30 134 1 124 117
M  V30 135 1 125 135
M  V30 136 2 125 132
M  V30 137 1 126 125
M  V30 138 2 127 126
M  V30 139 1 127 129
M  V30 140 1 128 126
M  V30 141 2 129 131
M  V30 142 1 130 127
M  V30 143 1 131 132
M  V30 144 1 131 133
M  V30 145 1 132 134
M  V30 146 2 136 130
M  V30 147 1 137 130
M  V30 148 1 138 136
M  V30 149 1 139 149
M  V30 150 2 139 146
M  V30 151 1 140 139
M  V30 152 2 141 140
M  V30 153 1 141 143
M  V30 154 1 142 140
M  V30 155 2 143 145
M  V30 156 1 144 141
M  V30 157 1 145 146
M  V30 158 1 145 147
M  V30 159 1 146 148
M  V30 160 2 150 144
M  V30 161 1 151 144
M  V30 162 1 152 150
M  V30 163 9 123 111
M  V30 164 9 116 111
M  V30 165 9 150 111
M  V30 166 9 143 111
M  V30 167 9 136 111
M  V30 168 9 129 111
M  V30 169 1 154 164
M  V30 170 2 154 161
M  V30 171 1 155 154
M  V30 172 2 156 155
M  V30 173 1 156 158
M  V30 174 1 157 155
M  V30 175 2 158 160
M  V30 176 1 159 156
M  V30 177 1 160 161
M  V30 178 1 160 162
M  V30 179 1 161 163
M  V30 180 2 165 159
M  V30 181 1 166 159
M  V30 182 1 167 177
M  V30 183 2 167 174
M  V30 184 1 168 167
M  V30 185 2 169 168
M  V30 186 1 169 171
M  V30 187 1 170 168
M  V30 188 2 171 173
M  V30 189 1 172 169
M  V30 190 1 173 174
M  V30 191 1 173 175
M  V30 192 1 174 176
M  V30 193 2 178 172
M  V30 194 1 179 172
M  V30 195 1 180 178
M  V30 196 1 181 191
M  V30 197 2 181 188
M  V30 198 1 182 181
M  V30 199 2 183 182
M  V30 200 1 183 185
M  V30 201 1 184 182
M  V30 202 2 185 187
M  V30 203 1 186 183
M  V30 204 1 187 188
M  V30 205 1 187 189
M  V30 206 1 188 190
M  V30 207 2 192 186
M  V30 208 1 193 186
M  V30 209 1 194 192
M  V30 210 9 165 153
M  V30 211 9 158 153
M  V30 212 9 192 153
M  V30 213 9 185 153
M  V30 214 9 178 153
M  V30 215 9 171 153
M  V30 216 1 196 206
M  V30 217 2 196 203
M  V30 218 1 197 196
M  V30 219 2 198 197
M  V30 220 1 198 200
M  V30 221 1 199 197
M  V30 222 2 200 202
M  V30 223 1 201 198
M  V30 224 1 202 203
M  V30 225 1 202 204
M  V30 226 1 203 205
M  V30 227 2 207 201
M  V30 228 1 208 201
M  V30 229 1 209 219
M  V30 230 2 209 216
M  V30 231 1 210 209
M  V30 232 2 211 210
M  V30 233 1 211 213
M  V30 234 1 212 210
M  V30 235 2 213 215
M  V30 236 1 214 211
M  V30 237 1 215 216
M  V30 238 1 215 217
M  V30 239 1 216 218
M  V30 240 2 220 214
M  V30 241 1 221 214
M  V30 242 1 222 220
M  V30 243 1 223 233
M  V30 244 2 223 230
M  V30 245 1 224 223
M  V30 246 2 225 224
M  V30 247 1 225 227
M  V30 248 1 226 224
M  V30 249 2 227 229
M  V30 250 1 228 225
M  V30 251 1 229 230
M  V30 252 1 229 231
M  V30 253 1 230 232
M  V30 254 2 234 228
M  V30 255 1 235 228
M  V30 256 1 236 234
M  V30 257 9 207 195
M  V30 258 9 200 195
M  V30 259 9 234 195
M  V30 260 9 227 195
M  V30 261 9 220 195
M  V30 262 9 213 195
M  V30 263 1 11 81
M  V30 264 1 1 123
M  V30 265 1 34 165
M  V30 266 1 26 207
M  V30 END BOND
M  V30 END CTAB
M  END

$$$$
