
     RDKit          3D

  0  0  0  0  0  0  0  0  0  0999 V3000
M  V30 BEGIN CTAB
M  V30 COUNTS 226 255 0 0 0
M  V30 BEGIN ATOM
M  V30 1 C -5.1682 -4.6145 -0.6145 0
M  V30 2 C -4.1528 -5.0115 0.2556 0
M  V30 3 C -2.9957 -4.2656 0.3694 0
M  V30 4 C -2.7921 -3.1114 -0.3916 0
M  V30 5 C -1.5341 -2.3442 -0.2832 0
M  V30 6 C -0.3268 -3.0295 -0.1988 0
M  V30 7 C 0.8774 -2.3376 -0.1102 0
M  V30 8 C 2.1464 -3.0906 -0.0480 0
M  V30 9 C 3.2063 -2.6884 0.7667 0
M  V30 10 C 4.3926 -3.3971 0.8067 0
M  V30 11 C 4.5570 -4.5604 0.0492 0
M  V30 12 C 3.4867 -4.9918 -0.7365 0
M  V30 13 C 2.3183 -4.2595 -0.7967 0
M  V30 14 C 0.8526 -0.9438 -0.0909 0
M  V30 15 C -0.3391 -0.2139 -0.1737 0
M  V30 16 C -0.3412 1.2754 -0.1572 0
M  V30 17 C -1.5277 2.0158 -0.2184 0
M  V30 18 C -1.5366 3.4106 -0.1996 0
M  V30 19 C -2.8035 4.1722 -0.2711 0
M  V30 20 C -3.0196 5.2976 0.5289 0
M  V30 21 C -4.1919 6.0260 0.4517 0
M  V30 22 C -5.2111 5.6441 -0.4218 0
M  V30 23 C -4.9969 4.5258 -1.2332 0
M  V30 24 C -3.8155 3.8121 -1.1615 0
M  V30 25 C -0.3254 4.0925 -0.1264 0
M  V30 26 C 0.8774 3.3937 -0.0725 0
M  V30 27 C 2.1562 4.1317 -0.0138 0
M  V30 28 C 2.3587 5.2643 -0.8043 0
M  V30 29 C 3.5320 5.9889 -0.7339 0
M  V30 30 C 4.5630 5.5988 0.1253 0
M  V30 31 C 4.3794 4.4509 0.8972 0
M  V30 32 C 3.1956 3.7398 0.8323 0
M  V30 33 C 0.8523 2.0012 -0.0827 0
M  V30 34 C -1.5248 -0.9502 -0.2766 0
M  V30 35 C -3.8002 -2.7355 -1.2792 0
M  V30 36 C -4.9684 -3.4655 -1.3852 0
M  V30 37 H -4.3012 -5.8829 0.8753 0
M  V30 38 H -2.2450 -4.5687 1.0837 0
M  V30 39 H -0.3269 -4.1088 -0.2050 0
M  V30 40 H 3.0952 -1.8162 1.3933 0
M  V30 41 H 5.1861 -3.0740 1.4654 0
M  V30 42 H 3.6046 -5.8809 -1.3372 0
M  V30 43 H 1.5304 -4.5858 -1.4581 0
M  V30 44 H 1.8008 -0.4347 -0.0358 0
M  V30 45 H -2.4823 1.5165 -0.2592 0
M  V30 46 H -2.2662 5.5937 1.2433 0
M  V30 47 H -4.3473 6.8729 1.1029 0
M  V30 48 H -5.7483 4.2396 -1.9548 0
M  V30 49 H -3.6689 2.9730 -1.8248 0
M  V30 50 H -0.3190 5.1718 -0.1129 0
M  V30 51 H 1.5905 5.5761 -1.4952 0
M  V30 52 H 3.6680 6.8480 -1.3742 0
M  V30 53 H 5.1521 4.1532 1.5902 0
M  V30 54 H 3.0614 2.8834 1.4763 0
M  V30 55 H 1.8026 1.4934 -0.0586 0
M  V30 56 H -2.4764 -0.4470 -0.3320 0
M  V30 57 H -3.6612 -1.8708 -1.9102 0
M  V30 58 H -5.7199 -3.1674 -2.1016 0
M  V30 59 Zn -6.7816 -7.4598 -1.0718 0 CHG=2
M  V30 60 C -11.1461 -5.3495 -0.8310 0
M  V30 61 C -9.9409 -4.6683 -0.7383 0
M  V30 62 C -8.7476 -5.3879 -0.7958 0
M  V30 63 H -9.9220 -3.5959 -0.6220 0
M  V30 64 N -8.7295 -6.7229 -0.9370 0
M  V30 65 C -7.4686 -4.7144 -0.6906 0
M  V30 66 C -9.8832 -7.3691 -1.0199 0
M  V30 67 C -11.1164 -6.7285 -0.9725 0
M  V30 68 H -9.8279 -8.4433 -1.1246 0
M  V30 69 H -12.0278 -7.3002 -1.0445 0
M  V30 70 H -12.0847 -4.8188 -0.7920 0
M  V30 71 N -6.3594 -5.3495 -0.6895 0
M  V30 72 H -7.5032 -3.6294 -0.5841 0
M  V30 73 C -6.2864 -9.1954 3.5037 0
M  V30 74 C -5.3007 -9.2608 2.5268 0
M  V30 75 C -5.5530 -8.7011 1.2769 0
M  V30 76 H -4.3560 -9.7416 2.7287 0
M  V30 77 N -6.7159 -8.0987 0.9805 0
M  V30 78 C -4.5596 -8.7407 0.2116 0
M  V30 79 C -7.6505 -8.0399 1.9141 0
M  V30 80 C -7.4835 -8.5721 3.1906 0
M  V30 81 H -8.5765 -7.5538 1.6419 0
M  V30 82 H -8.2791 -8.5020 3.9152 0
M  V30 83 H -6.1238 -9.6239 4.4807 0
M  V30 84 N -4.8034 -8.1803 -0.8980 0
M  V30 85 H -3.6287 -9.2631 0.4352 0
M  V30 86 H -4.0761 -8.2461 -1.6031 0
M  V30 87 C -8.0673 -11.6930 -3.2576 0
M  V30 88 C -7.7184 -10.5283 -3.9306 0
M  V30 89 C -7.3827 -9.3973 -3.1903 0
M  V30 90 H -7.7065 -10.4982 -5.0094 0
M  V30 91 N -7.3843 -9.3871 -1.8460 0
M  V30 92 C -7.0074 -8.1535 -3.8462 0
M  V30 93 C -7.7240 -10.4985 -1.2131 0
M  V30 94 C -8.0714 -11.6753 -1.8719 0
M  V30 95 H -7.7266 -10.4572 -0.1325 0
M  V30 96 H -8.3416 -12.5530 -1.3064 0
M  V30 97 H -8.3309 -12.5865 -3.8025 0
M  V30 98 N -6.6601 -7.1486 -3.1522 0
M  V30 99 H -7.0426 -8.1493 -4.9352 0
M  V30 100 H -6.4147 -6.3191 -3.6847 0
M  V30 101 Zn 7.8283 5.7976 -0.0707 0 CHG=2
M  V30 102 C 7.9333 10.5775 0.6478 0
M  V30 103 C 6.7713 9.8223 0.5662 0
M  V30 104 C 6.8689 8.4429 0.3847 0
M  V30 105 H 5.8041 10.2938 0.6438 0
M  V30 106 N 8.0567 7.8236 0.2825 0
M  V30 107 C 5.6826 7.6111 0.3145 0
M  V30 108 C 9.1630 8.5490 0.3651 0
M  V30 109 C 9.1540 9.9268 0.5490 0
M  V30 110 H 10.0979 8.0121 0.2853 0
M  V30 111 H 10.0823 10.4718 0.6119 0
M  V30 112 H 7.8878 11.6467 0.7866 0
M  V30 113 N 5.7515 6.3374 0.2224 0
M  V30 114 H 4.7248 8.1286 0.3753 0
M  V30 115 C 8.6628 4.1219 4.4846 0
M  V30 116 C 8.2999 3.3228 3.4077 0
M  V30 117 C 8.0841 3.9195 2.1682 0
M  V30 118 H 8.1890 2.2559 3.5261 0
M  V30 119 N 8.2101 5.2418 1.9769 0
M  V30 120 C 7.7076 3.1337 1.0003 0
M  V30 121 C 8.5566 5.9978 3.0044 0
M  V30 122 C 8.7949 5.4852 4.2780 0
M  V30 123 H 8.6550 7.0570 2.8149 0
M  V30 124 H 9.0801 6.1440 5.0827 0
M  V30 125 H 8.8406 3.6898 5.4573 0
M  V30 126 N 7.4914 3.7092 -0.1062 0
M  V30 127 H 7.6257 2.0556 1.1486 0
M  V30 128 H 7.2316 3.1117 -0.8843 0
M  V30 129 C 12.3337 5.1523 -1.9812 0
M  V30 130 C 11.1988 5.4649 -2.7195 0
M  V30 131 C 9.9843 5.6185 -2.0549 0
M  V30 132 H 11.2551 5.5888 -3.7900 0
M  V30 133 N 9.8668 5.4757 -0.7239 0
M  V30 134 C 8.7652 5.9470 -2.7809 0
M  V30 135 C 10.9535 5.1839 -0.0275 0
M  V30 136 C 12.2070 5.0111 -0.6084 0
M  V30 137 H 10.8289 5.0866 1.0423 0
M  V30 138 H 13.0615 4.7776 0.0067 0
M  V30 139 H 13.2896 5.0278 -2.4665 0
M  V30 140 N 7.6620 6.0334 -2.1594 0
M  V30 141 H 8.8664 6.1045 -3.8543 0
M  V30 142 H 6.8589 6.2708 -2.7347 0
M  V30 143 Zn 6.1499 -7.4423 0.2614 0 CHG=2
M  V30 144 C 10.5220 -5.4024 -0.3232 0
M  V30 145 C 9.3331 -4.6895 -0.2706 0
M  V30 146 C 8.1339 -5.3780 -0.0870 0
M  V30 147 H 9.3305 -3.6158 -0.3759 0
M  V30 148 N 8.0976 -6.7137 0.0363 0
M  V30 149 C 6.8673 -4.6720 -0.0413 0
M  V30 150 C 9.2358 -7.3903 -0.0128 0
M  V30 151 C 10.4731 -6.7815 -0.1880 0
M  V30 152 H 9.1639 -8.4629 0.0974 0
M  V30 153 H 11.3720 -7.3762 -0.2174 0
M  V30 154 H 11.4642 -4.8964 -0.4661 0
M  V30 155 N 5.7513 -5.2888 0.0345 0
M  V30 156 H 6.9175 -3.5848 -0.1177 0
M  V30 157 C 6.0786 -7.2988 5.1970 0
M  V30 158 C 4.9675 -7.5404 4.3989 0
M  V30 159 C 5.1204 -7.5441 3.0145 0
M  V30 160 H 4.0027 -7.7317 4.8425 0
M  V30 161 N 6.3010 -7.3094 2.4207 0
M  V30 162 C 4.0013 -7.8332 2.1285 0
M  V30 163 C 7.3553 -7.0827 3.1862 0
M  V30 164 C 7.2967 -7.0702 4.5775 0
M  V30 165 H 8.2941 -6.9118 2.6786 0
M  V30 166 H 8.1897 -6.8928 5.1555 0
M  V30 167 H 5.9953 -7.2982 6.2730 0
M  V30 168 N 4.1723 -7.8387 0.8731 0
M  V30 169 H 3.0470 -8.0481 2.6098 0
M  V30 170 H 3.3561 -8.0676 0.3146 0
M  V30 171 C 7.2854 -12.1834 -0.3737 0
M  V30 172 C 6.9360 -11.3092 -1.3963 0
M  V30 173 C 6.6316 -9.9880 -1.0781 0
M  V30 174 H 6.9004 -11.6465 -2.4209 0
M  V30 175 N 6.6663 -9.5223 0.1833 0
M  V30 176 C 6.2583 -9.0301 -2.1080 0
M  V30 177 C 7.0032 -10.3601 1.1504 0
M  V30 178 C 7.3192 -11.6976 0.9237 0
M  V30 179 H 7.0304 -9.9555 2.1526 0
M  V30 180 H 7.5890 -12.3372 1.7491 0
M  V30 181 H 7.5269 -13.2134 -0.5876 0
M  V30 182 N 5.9298 -7.8468 -1.7840 0
M  V30 183 H 6.2771 -9.3887 -3.1366 0
M  V30 184 H 5.6935 -7.2355 -2.5604 0
M  V30 185 Zn -6.8772 8.5008 -0.7711 0 CHG=2
M  V30 186 C -11.2032 6.3074 -0.6348 0
M  V30 187 C -9.9888 5.6403 -0.5608 0
M  V30 188 C -8.8049 6.3780 -0.5790 0
M  V30 189 H -9.9568 4.5642 -0.4897 0
M  V30 190 N -8.8071 7.7173 -0.6643 0
M  V30 191 C -7.5158 5.7179 -0.4948 0
M  V30 192 C -9.9695 8.3503 -0.7275 0
M  V30 193 C -11.1936 7.6914 -0.7171 0
M  V30 194 H -9.9288 9.4286 -0.7853 0
M  V30 195 H -12.1127 8.2525 -0.7719 0
M  V30 196 H -12.1344 5.7622 -0.6265 0
M  V30 197 N -6.4136 6.3643 -0.4674 0
M  V30 198 H -7.5398 4.6290 -0.4299 0
M  V30 199 C -6.4037 10.0494 3.8656 0
M  V30 200 C -5.4187 10.1623 2.8922 0
M  V30 201 C -5.6691 9.6563 1.6193 0
M  V30 202 H -4.4759 10.6378 3.1147 0
M  V30 203 N -6.8290 9.0602 1.2978 0
M  V30 204 C -4.6774 9.7497 0.5554 0
M  V30 205 C -7.7635 8.9578 2.2280 0
M  V30 206 C -7.5986 9.4359 3.5258 0
M  V30 207 H -8.6877 8.4801 1.9351 0
M  V30 208 H -8.3942 9.3318 4.2463 0
M  V30 209 H -6.2419 10.4351 4.8604 0
M  V30 210 N -4.9195 9.2356 -0.5773 0
M  V30 211 H -3.7503 10.2691 0.7988 0
M  V30 212 H -4.1932 9.3392 -1.2790 0
M  V30 213 C -8.2432 12.7882 -2.8052 0
M  V30 214 C -7.8738 11.6548 -3.5192 0
M  V30 215 C -7.5254 10.5017 -2.8197 0
M  V30 216 H -7.8548 11.6655 -4.5982 0
M  V30 217 N -7.5320 10.4415 -1.4767 0
M  V30 218 C -7.1331 9.2880 -3.5198 0
M  V30 219 C -7.8931 11.5228 -0.8048 0
M  V30 220 C -8.2564 12.7178 -1.4213 0
M  V30 221 H -7.9010 11.4411 0.2735 0
M  V30 222 H -8.5443 13.5691 -0.8251 0
M  V30 223 H -8.5157 13.6981 -3.3178 0
M  V30 224 N -6.7741 8.2619 -2.8635 0
M  V30 225 H -7.1685 9.3233 -4.6083 0
M  V30 226 H -6.5185 7.4562 -3.4267 0
M  V30 END ATOM
M  V30 BEGIN BOND
M  V30 1 2 1 2
M  V30 2 1 2 3
M  V30 3 2 3 4
M  V30 4 1 4 5
M  V30 5 2 5 6
M  V30 6 1 6 7
M  V30 7 1 7 8
M  V30 8 2 8 9
M  V30 9 1 9 10
M  V30 10 2 10 11
M  V30 11 1 11 12
M  V30 12 2 12 13
M  V30 13 2 7 14
M  V30 14 1 14 15
M  V30 15 1 15 16
M  V30 16 2 16 17
M  V30 17 1 17 18
M  V30 18 1 18 19
M  V30 19 2 19 20
M  V30 20 1 20 21
M  V30 21 2 21 22
M  V30 22 1 22 23
M  V30 23 2 23 24
M  V30 24 2 18 25
M  V30 25 1 25 26
M  V30 26 1 26 27
M  V30 27 2 27 28
M  V30 28 1 28 29
M  V30 29 2 29 30
M  V30 30 1 30 31
M  V30 31 2 31 32
M  V30 32 2 26 33
M  V30 33 2 15 34
M  V30 34 1 4 35
M  V30 35 2 35 36
M  V30 36 1 36 1
M  V30 37 1 34 5
M  V30 38 1 13 8
M  V30 39 1 33 16
M  V30 40 1 24 19
M  V30 41 1 32 27
M  V30 42 1 2 37
M  V30 43 1 3 38
M  V30 44 1 6 39
M  V30 45 1 9 40
M  V30 46 1 10 41
M  V30 47 1 12 42
M  V30 48 1 13 43
M  V30 49 1 14 44
M  V30 50 1 17 45
M  V30 51 1 20 46
M  V30 52 1 21 47
M  V30 53 1 23 48
M  V30 54 1 24 49
M  V30 55 1 25 50
M  V30 56 1 28 51
M  V30 57 1 29 52
M  V30 58 1 31 53
M  V30 59 1 32 54
M  V30 60 1 33 55
M  V30 61 1 34 56
M  V30 62 1 35 57
M  V30 63 1 36 58
M  V30 64 1 60 70
M  V30 65 2 60 67
M  V30 66 1 61 60
M  V30 67 2 62 61
M  V30 68 1 62 64
M  V30 69 1 63 61
M  V30 70 2 64 66
M  V30 71 1 65 62
M  V30 72 1 66 67
M  V30 73 1 66 68
M  V30 74 1 67 69
M  V30 75 2 71 65
M  V30 76 1 72 65
M  V30 77 1 73 83
M  V30 78 2 73 80
M  V30 79 1 74 73
M  V30 80 2 75 74
M  V30 81 1 75 77
M  V30 82 1 76 74
M  V30 83 2 77 79
M  V30 84 1 78 75
M  V30 85 1 79 80
M  V30 86 1 79 81
M  V30 87 1 80 82
M  V30 88 2 84 78
M  V30 89 1 85 78
M  V30 90 1 86 84
M  V30 91 1 87 97
M  V30 92 2 87 94
M  V30 93 1 88 87
M  V30 94 2 89 88
M  V30 95 1 89 91
M  V30 96 1 90 88
M  V30 97 2 91 93
M  V30 98 1 92 89
M  V30 99 1 93 94
M  V30 100 1 93 95
M  V30 101 1 94 96
M  V30 102 2 98 92
M  V30 103 1 99 92
M  V30 104 1 100 98
M  V30 105 9 71 59
M  V30 106 9 64 59
M  V30 107 9 84 59
M  V30 108 9 77 59
M  V30 109 9 98 59
M  V30 110 9 91 59
M  V30 111 1 102 112
M  V30 112 2 102 109
M  V30 113 1 103 102
M  V30 114 2 104 103
M  V30 115 1 104 106
M  V30 116 1 105 103
M  V30 117 2 106 108
M  V30 118 1 107 104
M  V30 119 1 108 109
M  V30 120 1 108 110
M  V30 121 1 109 111
M  V30 122 2 113 107
M  V30 123 1 114 107
M  V30 124 1 115 125
M  V30 125 2 115 122
M  V30 126 1 116 115
M  V30 127 2 117 116
M  V30 128 1 117 119
M  V30 129 1 118 116
M  V30 130 2 119 121
M  V30 131 1 120 117
M  V30 132 1 121 122
M  V30 133 1 121 123
M  V30 134 1 122 124
M  V30 135 2 126 120
M  V30 136 1 127 120
M  V30 137 1 128 126
M  V30 138 1 129 139
M  V30 139 2 129 136
M  V30 140 1 130 129
M  V30 141 2 131 130
M  V30 142 1 131 133
M  V30 143 1 132 130
M  V30 144 2 133 135
M  V30 145 1 134 131
M  V30 146 1 135 136
M  V30 147 1 135 137
M  V30 148 1 136 138
M  V30 149 2 140 134
M  V30 150 1 141 134
M  V30 151 1 142 140
M  V30 152 9 113 101
M  V30 153 9 106 101
M  V30 154 9 140 101
M  V30 155 9 133 101
M  V30 156 9 126 101
M  V30 157 9 119 101
M  V30 158 1 144 154
M  V30 159 2 144 151
M  V30 160 1 145 144
M  V30 161 2 146 145
M  V30 162 1 146 148
M  V30 163 1 147 145
M  V30 164 2 148 150
M  V30 165 1 149 146
M  V30 166 1 150 151
M  V30 167 1 150 152
M  V30 168 1 151 153
M  V30 169 2 155 149
M  V30 170 1 156 149
M  V30 171 1 157 167
M  V30 172 2 157 164
M  V30 173 1 158 157
M  V30 174 2 159 158
M  V30 175 1 159 161
M  V30 176 1 160 158
M  V30 177 2 161 163
M  V30 178 1 162 159
M  V30 179 1 163 164
M  V30 180 1 163 165
M  V30 181 1 164 166
M  V30 182 2 168 162
M  V30 183 1 169 162
M  V30 184 1 170 168
M  V30 185 1 171 181
M  V30 186 2 171 178
M  V30 187 1 172 171
M  V30 188 2 173 172
M  V30 189 1 173 175
M  V30 190 1 174 172
M  V30 191 2 175 177
M  V30 192 1 176 173
M  V30 193 1 177 178
M  V30 194 1 177 179
M  V30 195 1 178 180
M  V30 196 2 182 176
M  V30 197 1 183 176
M  V30 198 1 184 182
M  V30 199 9 155 143
M  V30 200 9 148 143
M  V30 201 9 182 143
M  V30 202 9 175 143
M  V30 203 9 168 143
M  V30 204 9 161 143
M  V30 205 1 186 196
M  V30 206 2 186 193
M  V30 207 1 187 186
M  V30 208 2 188 187
M  V30 209 1 188 190
M  V30 210 1 189 187
M  V30 211 2 190 192
M  V30 212 1 191 188
M  V30 213 1 192 193
M  V30 214 1 192 194
M  V30 215 1 193 195
M  V30 216 2 197 191
M  V30 217 1 198 191
M  V30 218 1 199 209
M  V30 219 2 199 206
M  V30 220 1 200 199
M  V30 221 2 201 200
M  V30 222 1 201 203
M  V30 223 1 202 200
M  V30 224 2 203 205
M  V30 225 1 204 201
M  V30 226 1 205 206
M  V30 227 1 205 207
M  V30 228 1 206 208
M  V30 229 2 210 204
M  V30 230 1 211 204
M  V30 231 1 212 210
M  V30 232 1 213 223
M  V30 233 2 213 220
M  V30 234 1 214 213
M  V30 235 2 215 214
M  V30 236 1 215 217
M  V30 237 1 216 214
M  V30 238 2 217 219
M  V30 239 1 218 215
M  V30 240 1 219 220
M  V30 241 1 219 221
M  V30 242 1 220 222
M  V30 243 2 224 218
M  V30 244 1 225 218
M  V30 245 1 226 224
M  V30 246 9 197 185
M  V30 247 9 190 185
M  V30 248 9 224 185
M  V30 249 9 217 185
M  V30 250 9 210 185
M  V30 251 9 203 185
M  V30 252 1 30 113
M  V30 253 1 11 155
M  V30 254 1 1 71
M  V30 255 1 22 197
M  V30 END BOND
M  V30 END CTAB
M  END

$$$$
