
     RDKit          3D

  0  0  0  0  0  0  0  0  0  0999 V3000
M  V30 BEGIN CTAB
M  V30 COUNTS 230 259 0 0 0
M  V30 BEGIN ATOM
M  V30 1 C -7.0284 3.6440 0.2751 0
M  V30 2 C -7.4766 2.7156 -0.6746 0
M  V30 3 C -6.8070 1.5302 -0.8856 0
M  V30 4 C -5.6583 1.2113 -0.1532 0
M  V30 5 N -4.9741 0.0120 -0.3859 0
M  V30 6 C -5.6957 -1.1592 -0.6402 0
M  V30 7 C -5.2344 -2.1229 -1.5459 0
M  V30 8 C -5.9414 -3.2857 -1.7661 0
M  V30 9 C -7.1530 -3.5317 -1.1117 0
M  V30 10 C -7.6137 -2.5677 -0.2055 0
M  V30 11 C -6.8993 -1.4126 0.0280 0
M  V30 12 C -3.5676 -0.0099 -0.3624 0
M  V30 13 C -2.8263 1.1015 -0.7666 0
M  V30 14 C -1.4464 1.0812 -0.7358 0
M  V30 15 C -0.7388 -0.0489 -0.3201 0
M  V30 16 C 0.7333 -0.0676 -0.3030 0
M  V30 17 C 1.4778 0.6638 -1.2322 0
M  V30 18 C 2.8587 0.6552 -1.2182 0
M  V30 19 C 3.5541 -0.0970 -0.2726 0
M  V30 20 N 4.9667 -0.1108 -0.2581 0
M  V30 21 C 5.6651 1.0860 -0.4270 0
M  V30 22 C 6.8779 1.1237 -1.1255 0
M  V30 23 C 7.5718 2.3028 -1.2797 0
M  V30 24 C 7.0890 3.5072 -0.7467 0
M  V30 25 C 5.8591 3.4735 -0.0828 0
M  V30 26 C 5.1649 2.2929 0.0773 0
M  V30 27 C 5.6418 -1.3179 -0.0781 0
M  V30 28 C 6.8565 -1.3712 0.6168 0
M  V30 29 C 7.5312 -2.5606 0.7805 0
M  V30 30 C 7.0216 -3.7599 0.2633 0
M  V30 31 C 5.7880 -3.7117 -0.3946 0
M  V30 32 C 5.1162 -2.5209 -0.5679 0
M  V30 33 C 2.8228 -0.8349 0.6571 0
M  V30 34 C 1.4418 -0.8153 0.6410 0
M  V30 35 C -1.4890 -1.1581 0.0762 0
M  V30 36 C -2.8697 -1.1401 0.0656 0
M  V30 37 C -5.2090 2.1374 0.7956 0
M  V30 38 C -5.8747 3.3281 0.9987 0
M  V30 39 H -8.3312 2.9498 -1.2913 0
M  V30 40 H -7.1629 0.8458 -1.6405 0
M  V30 41 H -4.3212 -1.9411 -2.0924 0
M  V30 42 H -5.5890 -4.0003 -2.4941 0
M  V30 43 H -8.5161 -2.7482 0.3588 0
M  V30 44 H -7.2661 -0.6984 0.7495 0
M  V30 45 H -3.3386 1.9856 -1.1155 0
M  V30 46 H -0.9095 1.9683 -1.0350 0
M  V30 47 H 0.9709 1.2256 -2.0014 0
M  V30 48 H 3.4083 1.2211 -1.9556 0
M  V30 49 H 7.2664 0.2180 -1.5654 0
M  V30 50 H 8.4789 2.2999 -1.8648 0
M  V30 51 H 5.4760 4.3813 0.3558 0
M  V30 52 H 4.2316 2.2913 0.6202 0
M  V30 53 H 7.2641 -0.4676 1.0438 0
M  V30 54 H 8.4439 -2.5676 1.3567 0
M  V30 55 H 5.3913 -4.6206 -0.8204 0
M  V30 56 H 4.1834 -2.5066 -1.1114 0
M  V30 57 H 3.3456 -1.4133 1.4049 0
M  V30 58 H 0.9062 -1.3688 1.3972 0
M  V30 59 H -0.9855 -2.0599 0.3897 0
M  V30 60 H -3.4173 -2.0099 0.3976 0
M  V30 61 H -4.3369 1.9055 1.3884 0
M  V30 62 H -5.5327 4.0077 1.7635 0
M  V30 63 Zn 7.2129 6.7550 -1.3326 0 CHG=2
M  V30 64 C 12.0314 6.9409 -1.1187 0
M  V30 65 C 11.2831 5.7855 -0.9491 0
M  V30 66 C 9.8899 5.8627 -0.9964 0
M  V30 67 H 11.7686 4.8359 -0.7865 0
M  V30 68 N 9.2516 7.0280 -1.1994 0
M  V30 69 C 9.0773 4.6790 -0.8209 0
M  V30 70 C 9.9724 8.1309 -1.3482 0
M  V30 71 C 11.3615 8.1396 -1.3169 0
M  V30 72 H 9.4222 9.0496 -1.4945 0
M  V30 73 H 11.9012 9.0641 -1.4454 0
M  V30 74 H 13.1097 6.9084 -1.0945 0
M  V30 75 N 7.7942 4.7063 -0.8666 0
M  V30 76 H 9.6210 3.7556 -0.6245 0
M  V30 77 C 5.9886 8.1285 3.2437 0
M  V30 78 C 5.0753 7.7472 2.2691 0
M  V30 79 C 5.5472 7.3734 1.0134 0
M  V30 80 H 4.0164 7.7406 2.4772 0
M  V30 81 N 6.8547 7.3641 0.7111 0
M  V30 82 C 4.6392 6.9678 -0.0511 0
M  V30 83 C 7.7193 7.7332 1.6401 0
M  V30 84 C 7.3359 8.1244 2.9215 0
M  V30 85 H 8.7632 7.7252 1.3613 0
M  V30 86 H 8.0805 8.4211 3.6429 0
M  V30 87 H 5.6556 8.4249 4.2264 0
M  V30 88 N 5.1047 6.5633 -1.1572 0
M  V30 89 H 3.5726 7.0277 0.1717 0
M  V30 90 H 4.4254 6.2947 -1.8617 0
M  V30 91 C 6.3929 11.0491 -3.6603 0
M  V30 92 C 6.6373 9.8370 -4.2938 0
M  V30 93 C 6.8555 8.7025 -3.5154 0
M  V30 94 H 6.6593 9.7728 -5.3708 0
M  V30 95 N 6.8388 8.7348 -2.1724 0
M  V30 96 C 7.1173 7.4077 -4.1289 0
M  V30 97 C 6.6132 9.8943 -1.5770 0
M  V30 98 C 6.3836 11.0773 -2.2747 0
M  V30 99 H 6.6199 9.8903 -0.4956 0
M  V30 100 H 6.2089 11.9970 -1.7394 0
M  V30 101 H 6.2206 11.9461 -4.2351 0
M  V30 102 N 7.2474 6.3755 -3.4021 0
M  V30 103 H 7.1879 7.3913 -5.2161 0
M  V30 104 H 7.4360 5.5128 -3.9044 0
M  V30 105 Zn -7.1740 -6.7585 -1.6570 0 CHG=2
M  V30 106 C -11.9885 -7.0404 -1.9911 0
M  V30 107 C -11.2911 -5.8673 -1.7419 0
M  V30 108 C -9.8980 -5.9064 -1.6640 0
M  V30 109 H -11.8165 -4.9343 -1.6102 0
M  V30 110 N -9.2117 -7.0505 -1.8280 0
M  V30 111 C -9.1328 -4.7042 -1.4085 0
M  V30 112 C -9.8838 -8.1680 -2.0676 0
M  V30 113 C -11.2697 -8.2156 -2.1559 0
M  V30 114 H -9.2954 -9.0668 -2.1890 0
M  V30 115 H -11.7692 -9.1516 -2.3484 0
M  V30 116 H -13.0657 -7.0390 -2.0549 0
M  V30 117 N -7.8506 -4.7098 -1.3765 0
M  V30 118 H -9.7072 -3.7879 -1.2775 0
M  V30 119 C -6.9423 -7.5702 3.2189 0
M  V30 120 C -5.8918 -7.0835 2.4516 0
M  V30 121 C -6.0765 -6.9226 1.0806 0
M  V30 122 H -4.9443 -6.8384 2.9062 0
M  V30 123 N -7.2384 -7.2085 0.4735 0
M  V30 124 C -4.9991 -6.4590 0.2192 0
M  V30 125 C -8.2327 -7.6772 1.2077 0
M  V30 126 C -8.1333 -7.8798 2.5826 0
M  V30 127 H -9.1501 -7.9135 0.6880 0
M  V30 128 H -8.9719 -8.2744 3.1339 0
M  V30 129 H -6.8303 -7.7105 4.2829 0
M  V30 130 N -5.1947 -6.3203 -1.0244 0
M  V30 131 H -4.0423 -6.2622 0.7053 0
M  V30 132 H -4.3949 -6.0148 -1.5695 0
M  V30 133 C -5.8600 -11.1589 -3.4463 0
M  V30 134 C -6.0564 -10.0188 -4.2158 0
M  V30 135 C -6.4169 -8.8328 -3.5811 0
M  V30 136 H -5.9339 -10.0492 -5.2876 0
M  V30 137 N -6.5853 -8.7485 -2.2505 0
M  V30 138 C -6.6347 -7.6072 -4.3379 0
M  V30 139 C -6.4013 -9.8395 -1.5253 0
M  V30 140 C -6.0365 -11.0658 -2.0749 0
M  V30 141 H -6.5548 -9.7417 -0.4595 0
M  V30 142 H -5.9031 -11.9261 -1.4385 0
M  V30 143 H -5.5824 -12.0939 -3.9083 0
M  V30 144 N -6.8830 -6.5239 -3.7258 0
M  V30 145 H -6.5669 -7.6856 -5.4225 0
M  V30 146 H -7.0377 -5.7145 -4.3205 0
M  V30 147 Zn 6.9840 -7.0087 0.6950 0 CHG=2
M  V30 148 C 11.7945 -7.4498 0.4734 0
M  V30 149 C 11.1144 -6.2458 0.3665 0
M  V30 150 C 9.7205 -6.2410 0.4456 0
M  V30 151 H 11.6532 -5.3220 0.2242 0
M  V30 152 N 9.0174 -7.3733 0.6185 0
M  V30 153 C 8.9750 -5.0059 0.3328 0
M  V30 154 C 9.6734 -8.5215 0.7172 0
M  V30 155 C 11.0583 -8.6121 0.6533 0
M  V30 156 H 9.0721 -9.4085 0.8593 0
M  V30 157 H 11.5440 -9.5705 0.7433 0
M  V30 158 H 12.8717 -7.4819 0.4182 0
M  V30 159 N 7.6926 -4.9765 0.3738 0
M  V30 160 H 9.5655 -4.1042 0.1757 0
M  V30 161 C 6.7048 -6.5224 5.6061 0
M  V30 162 C 5.6605 -6.2580 4.7293 0
M  V30 163 C 5.8609 -6.4518 3.3647 0
M  V30 164 H 4.7058 -5.9142 5.0966 0
M  V30 165 N 7.0322 -6.8726 2.8620 0
M  V30 166 C 4.7908 -6.2360 2.4036 0
M  V30 167 C 8.0208 -7.1272 3.7019 0
M  V30 168 C 7.9056 -6.9724 5.0819 0
M  V30 169 H 8.9465 -7.4790 3.2696 0
M  V30 170 H 8.7402 -7.2048 5.7240 0
M  V30 171 H 6.5803 -6.3876 6.6695 0
M  V30 172 N 4.9990 -6.4235 1.1679 0
M  V30 173 H 3.8280 -5.9274 2.8131 0
M  V30 174 H 4.2017 -6.2768 0.5573 0
M  V30 175 C 5.6752 -11.7340 0.1371 0
M  V30 176 C 5.8994 -10.8477 -0.9091 0
M  V30 177 C 6.2482 -9.5322 -0.6133 0
M  V30 178 H 5.8074 -11.1703 -1.9348 0
M  V30 179 N 6.3815 -9.0871 0.6475 0
M  V30 180 C 6.4885 -8.5589 -1.6699 0
M  V30 181 C 6.1708 -9.9380 1.6380 0
M  V30 182 C 5.8132 -11.2686 1.4351 0
M  V30 183 H 6.2955 -9.5521 2.6402 0
M  V30 184 H 5.6555 -11.9217 2.2786 0
M  V30 185 H 5.4057 -12.7605 -0.0588 0
M  V30 186 N 6.7202 -7.3479 -1.3708 0
M  V30 187 H 6.4501 -8.9311 -2.6933 0
M  V30 188 H 6.8909 -6.7299 -2.1592 0
M  V30 189 Zn -7.0145 6.9121 0.6857 0 CHG=2
M  V30 190 C -11.8287 7.2676 0.7341 0
M  V30 191 C -11.1330 6.0781 0.5745 0
M  V30 192 C -9.7378 6.0941 0.6162 0
M  V30 193 H -11.6607 5.1505 0.4169 0
M  V30 194 N -9.0478 7.2315 0.8087 0
M  V30 195 C -8.9769 4.8734 0.4575 0
M  V30 196 C -9.7191 8.3632 0.9725 0
M  V30 197 C -11.1065 8.4335 0.9426 0
M  V30 198 H -9.1288 9.2532 1.1387 0
M  V30 199 H -11.6046 9.3800 1.0794 0
M  V30 200 H -12.9071 7.2850 0.6991 0
M  V30 201 N -7.6944 4.8512 0.4994 0
M  V30 202 H -9.5591 3.9625 0.3217 0
M  V30 203 C -5.9329 6.8933 5.4902 0
M  V30 204 C -4.9994 6.7220 4.4756 0
M  V30 205 C -5.4331 6.7375 3.1523 0
M  V30 206 H -3.9545 6.5806 4.7057 0
M  V30 207 N -6.7228 6.9082 2.8203 0
M  V30 208 C -4.5028 6.5686 2.0452 0
M  V30 209 C -7.6062 7.0746 3.7892 0
M  V30 210 C -7.2607 7.0755 5.1395 0
M  V30 211 H -8.6341 7.2182 3.4885 0
M  V30 212 H -8.0192 7.2197 5.8923 0
M  V30 213 H -5.6290 6.8882 6.5256 0
M  V30 214 N -4.9365 6.5337 0.8551 0
M  V30 215 H -3.4484 6.4702 2.3084 0
M  V30 216 H -4.2414 6.4134 0.1258 0
M  V30 217 C -5.9685 11.6551 -0.2981 0
M  V30 218 C -6.2382 10.6878 -1.2580 0
M  V30 219 C -6.5121 9.3862 -0.8440 0
M  V30 220 H -6.2383 10.9380 -2.3078 0
M  V30 221 N -6.5267 9.0288 0.4509 0
M  V30 222 C -6.8002 8.3347 -1.8095 0
M  V30 223 C -6.2751 9.9573 1.3590 0
M  V30 224 C -5.9890 11.2814 1.0362 0
M  V30 225 H -6.3063 9.6420 2.3929 0
M  V30 226 H -5.7949 11.9996 1.8170 0
M  V30 227 H -5.7542 12.6728 -0.5864 0
M  V30 228 N -6.9832 7.1430 -1.4141 0
M  V30 229 H -6.8420 8.6353 -2.8562 0
M  V30 230 H -7.1865 6.4696 -2.1472 0
M  V30 END ATOM
M  V30 BEGIN BOND
M  V30 1 2 1 2
M  V30 2 1 2 3
M  V30 3 2 3 4
M  V30 4 1 4 5
M  V30 5 1 5 6
M  V30 6 2 6 7
M  V30 7 1 7 8
M  V30 8 2 8 9
M  V30 9 1 9 10
M  V30 10 2 10 11
M  V30 11 1 5 12
M  V30 12 2 12 13
M  V30 13 1 13 14
M  V30 14 2 14 15
M  V30 15 1 15 16
M  V30 16 2 16 17
M  V30 17 1 17 18
M  V30 18 2 18 19
M  V30 19 1 19 20
M  V30 20 1 20 21
M  V30 21 2 21 22
M  V30 22 1 22 23
M  V30 23 2 23 24
M  V30 24 1 24 25
M  V30 25 2 25 26
M  V30 26 1 20 27
M  V30 27 2 27 28
M  V30 28 1 28 29
M  V30 29 2 29 30
M  V30 30 1 30 31
M  V30 31 2 31 32
M  V30 32 1 19 33
M  V30 33 2 33 34
M  V30 34 1 15 35
M  V30 35 2 35 36
M  V30 36 1 4 37
M  V30 37 2 37 38
M  V30 38 1 38 1
M  V30 39 1 11 6
M  V30 40 1 36 12
M  V30 41 1 34 16
M  V30 42 1 26 21
M  V30 43 1 32 27
M  V30 44 1 2 39
M  V30 45 1 3 40
M  V30 46 1 7 41
M  V30 47 1 8 42
M  V30 48 1 10 43
M  V30 49 1 11 44
M  V30 50 1 13 45
M  V30 51 1 14 46
M  V30 52 1 17 47
M  V30 53 1 18 48
M  V30 54 1 22 49
M  V30 55 1 23 50
M  V30 56 1 25 51
M  V30 57 1 26 52
M  V30 58 1 28 53
M  V30 59 1 29 54
M  V30 60 1 31 55
M  V30 61 1 32 56
M  V30 62 1 33 57
M  V30 63 1 34 58
M  V30 64 1 35 59
M  V30 65 1 36 60
M  V30 66 1 37 61
M  V30 67 1 38 62
M  V30 68 1 64 74
M  V30 69 2 64 71
M  V30 70 1 65 64
M  V30 71 2 66 65
M  V30 72 1 66 68
M  V30 73 1 67 65
M  V30 74 2 68 70
M  V30 75 1 69 66
M  V30 76 1 70 71
M  V30 77 1 70 72
M  V30 78 1 71 73
M  V30 79 2 75 69
M  V30 80 1 76 69
M  V30 81 1 77 87
M  V30 82 2 77 84
M  V30 83 1 78 77
M  V30 84 2 79 78
M  V30 85 1 79 81
M  V30 86 1 80 78
M  V30 87 2 81 83
M  V30 88 1 82 79
M  V30 89 1 83 84
M  V30 90 1 83 85
M  V30 91 1 84 86
M  V30 92 2 88 82
M  V30 93 1 89 82
M  V30 94 1 90 88
M  V30 95 1 91 101
M  V30 96 2 91 98
M  V30 97 1 92 91
M  V30 98 2 93 92
M  V30 99 1 93 95
M  V30 100 1 94 92
M  V30 101 2 95 97
M  V30 102 1 96 93
M  V30 103 1 97 98
M  V30 104 1 97 99
M  V30 105 1 98 100
M  V30 106 2 102 96
M  V30 107 1 103 96
M  V30 108 1 104 102
M  V30 109 9 75 63
M  V30 110 9 68 63
M  V30 111 9 88 63
M  V30 112 9 81 63
M  V30 113 9 102 63
M  V30 114 9 95 63
M  V30 115 1 106 116
M  V30 116 2 106 113
M  V30 117 1 107 106
M  V30 118 2 108 107
M  V30 119 1 108 110
M  V30 120 1 109 107
M  V30 121 2 110 112
M  V30 122 1 111 108
M  V30 123 1 112 113
M  V30 124 1 112 114
M  V30 125 1 113 115
M  V30 126 2 117 111
M  V30 127 1 118 111
M  V30 128 1 119 129
M  V30 129 2 119 126
M  V30 130 1 120 119
M  V30 131 2 121 120
M  V30 132 1 121 123
M  V30 133 1 122 120
M  V30 134 2 123 125
M  V30 135 1 124 121
M  V30 136 1 125 126
M  V30 137 1 125 127
M  V30 138 1 126 128
M  V30 139 2 130 124
M  V30 140 1 131 124
M  V30 141 1 132 130
M  V30 142 1 133 143
M  V30 143 2 133 140
M  V30 144 1 134 133
M  V30 145 2 135 134
M  V30 146 1 135 137
M  V30 147 1 136 134
M  V30 148 2 137 139
M  V30 149 1 138 135
M  V30 150 1 139 140
M  V30 151 1 139 141
M  V30 152 1 140 142
M  V30 153 2 144 138
M  V30 154 1 145 138
M  V30 155 1 146 144
M  V30 156 9 117 105
M  V30 157 9 110 105
M  V30 158 9 130 105
M  V30 159 9 123 105
M  V30 160 9 144 105
M  V30 161 9 137 105
M  V30 162 1 148 158
M  V30 163 2 148 155
M  V30 164 1 149 148
M  V30 165 2 150 149
M  V30 166 1 150 152
M  V30 167 1 151 149
M  V30 168 2 152 154
M  V30 169 1 153 150
M  V30 170 1 154 155
M  V30 171 1 154 156
M  V30 172 1 155 157
M  V30 173 2 159 153
M  V30 174 1 160 153
M  V30 175 1 161 171
M  V30 176 2 161 168
M  V30 177 1 162 161
M  V30 178 2 163 162
M  V30 179 1 163 165
M  V30 180 1 164 162
M  V30 181 2 165 167
M  V30 182 1 166 163
M  V30 183 1 167 168
M  V30 184 1 167 169
M  V30 185 1 168 170
M  V30 186 2 172 166
M  V30 187 1 173 166
M  V30 188 1 174 172
M  V30 189 1 175 185
M  V30 190 2 175 182
M  V30 191 1 176 175
M  V30 192 2 177 176
M  V30 193 1 177 179
M  V30 194 1 178 176
M  V30 195 2 179 181
M  V30 196 1 180 177
M  V30 197 1 181 182
M  V30 198 1 181 183
M  V30 199 1 182 184
M  V30 200 2 186 180
M  V30 201 1 187 180
M  V30 202 1 188 186
M  V30 203 9 159 147
M  V30 204 9 152 147
M  V30 205 9 186 147
M  V30 206 9 179 147
M  V30 207 9 172 147
M  V30 208 9 165 147
M  V30 209 1 190 200
M  V30 210 2 190 197
M  V30 211 1 191 190
M  V30 212 2 192 191
M  V30 213 1 192 194
M  V30 214 1 193 191
M  V30 215 2 194 196
M  V30 216 1 195 192
M  V30 217 1 196 197
M  V30 218 1 196 198
M  V30 219 1 197 199
M  V30 220 2 201 195
M  V30 221 1 202 195
M  V30 222 1 203 213
M  V30 223 2 203 210
M  V30 224 1 204 203
M  V30 225 2 205 204
M  V30 226 1 205 207
M  V30 227 1 206 204
M  V30 228 2 207 209
M  V30 229 1 208 205
M  V30 230 1 209 210
M  V30 231 1 209 211
M  V30 232 1 210 212
M  V30 233 2 214 208
M  V30 234 1 215 208
M  V30 235 1 216 214
M  V30 236 1 217 227
M  V30 237 2 217 224
M  V30 238 1 218 217
M  V30 239 2 219 218
M  V30 240 1 219 221
M  V30 241 1 220 218
M  V30 242 2 221 223
M  V30 243 1 222 219
M  V30 244 1 223 224
M  V30 245 1 223 225
M  V30 246 1 224 226
M  V30 247 2 228 222
M  V30 248 1 229 222
M  V30 249 1 230 228
M  V30 250 9 201 189
M  V30 251 9 194 189
M  V30 252 9 228 189
M  V30 253 9 221 189
M  V30 254 9 214 189
M  V30 255 9 207 189
M  V30 256 1 24 75
M  V30 257 1 30 159
M  V30 258 1 9 117
M  V30 259 1 1 201
M  V30 END BOND
M  V30 END CTAB
M  END

$$$$
