
     RDKit          3D

  0  0  0  0  0  0  0  0  0  0999 V3000
M  V30 BEGIN CTAB
M  V30 COUNTS 230 259 0 0 0
M  V30 BEGIN ATOM
M  V30 1 C -7.0713 2.8783 0.0488 0
M  V30 2 C -7.5467 1.8171 -0.7370 0
M  V30 3 C -6.8598 0.6284 -0.8209 0
M  V30 4 C -5.6598 0.4311 -0.1231 0
M  V30 5 N -4.9854 -0.7851 -0.2189 0
M  V30 6 C -5.7434 -1.9648 -0.2735 0
M  V30 7 C -5.3977 -3.0261 -1.1149 0
M  V30 8 C -6.1520 -4.1806 -1.1432 0
M  V30 9 C -7.2898 -4.3258 -0.3370 0
M  V30 10 C -7.6464 -3.2532 0.4850 0
M  V30 11 C -6.8877 -2.1032 0.5218 0
M  V30 12 C -3.5774 -0.8266 -0.2686 0
M  V30 13 C -2.8528 0.2290 -0.8252 0
M  V30 14 C -1.4728 0.2045 -0.8557 0
M  V30 15 C -0.7429 -0.8785 -0.3575 0
M  V30 16 C 0.7318 -0.8813 -0.3927 0
M  V30 17 C 1.4332 -0.1885 -1.3848 0
M  V30 18 C 2.8139 -0.1444 -1.4008 0
M  V30 19 C 3.5571 -0.8106 -0.4277 0
M  V30 20 N 4.9734 -0.7560 -0.4380 0
M  V30 21 C 5.6263 0.4518 -0.6365 0
M  V30 22 C 6.8599 0.5003 -1.3041 0
M  V30 23 C 7.5404 1.6834 -1.4623 0
M  V30 24 C 7.0292 2.8925 -0.9612 0
M  V30 25 C 5.7693 2.8511 -0.3526 0
M  V30 26 C 5.0840 1.6665 -0.1932 0
M  V30 27 C 5.7112 -1.9327 -0.2687 0
M  V30 28 C 6.9137 -1.9321 0.4494 0
M  V30 29 C 7.6573 -3.0832 0.5909 0
M  V30 30 C 7.2334 -4.2930 0.0323 0
M  V30 31 C 6.0229 -4.2930 -0.6768 0
M  V30 32 C 5.2772 -3.1424 -0.8196 0
M  V30 33 C 2.8730 -1.5316 0.5494 0
M  V30 34 C 1.4904 -1.5574 0.5674 0
M  V30 35 C -1.4783 -1.9395 0.1779 0
M  V30 36 C -2.8596 -1.9143 0.2313 0
M  V30 37 C -5.1764 1.4948 0.6507 0
M  V30 38 C -5.8635 2.6869 0.7294 0
M  V30 39 H -8.4368 1.9491 -1.3337 0
M  V30 40 H -7.2371 -0.1605 -1.4538 0
M  V30 41 H -4.5371 -2.9355 -1.7600 0
M  V30 42 H -5.8813 -4.9636 -1.8355 0
M  V30 43 H -8.5007 -3.3538 1.1355 0
M  V30 44 H -7.1668 -1.3022 1.1901 0
M  V30 45 H -3.3776 1.0741 -1.2461 0
M  V30 46 H -0.9545 1.0549 -1.2716 0
M  V30 47 H 0.8943 0.3031 -2.1798 0
M  V30 48 H 3.3259 0.3959 -2.1835 0
M  V30 49 H 7.2704 -0.4074 -1.7196 0
M  V30 50 H 8.4589 1.6812 -2.0294 0
M  V30 51 H 5.3549 3.7629 0.0461 0
M  V30 52 H 4.1279 1.6642 0.3082 0
M  V30 53 H 7.2539 -1.0174 0.9115 0
M  V30 54 H 8.5639 -3.0681 1.1740 0
M  V30 55 H 5.6854 -5.1921 -1.1694 0
M  V30 56 H 4.3587 -3.1678 -1.3859 0
M  V30 57 H 3.4295 -2.0597 1.3096 0
M  V30 58 H 0.9965 -2.0939 1.3626 0
M  V30 59 H -0.9672 -2.8120 0.5541 0
M  V30 60 H -3.3871 -2.7465 0.6727 0
M  V30 61 H -4.2634 1.3657 1.2122 0
M  V30 62 H -5.4954 3.4725 1.3701 0
M  V30 63 Zn 7.1319 6.1502 -1.4000 0 CHG=2
M  V30 64 C 11.9556 6.3536 -1.3021 0
M  V30 65 C 11.2132 5.1904 -1.1738 0
M  V30 66 C 9.8181 5.2664 -1.1714 0
M  V30 67 H 11.7033 4.2338 -1.0827 0
M  V30 68 N 9.1748 6.4407 -1.2861 0
M  V30 69 C 9.0140 4.0744 -1.0336 0
M  V30 70 C 9.8915 7.5515 -1.3928 0
M  V30 71 C 11.2801 7.5613 -1.4074 0
M  V30 72 H 9.3379 8.4767 -1.4652 0
M  V30 73 H 11.8157 8.4923 -1.4999 0
M  V30 74 H 13.0340 6.3221 -1.3167 0
M  V30 75 N 7.7272 4.0937 -1.0528 0
M  V30 76 H 9.5672 3.1479 -0.8873 0
M  V30 77 C 5.9558 7.1895 3.2737 0
M  V30 78 C 5.0286 6.9236 2.2744 0
M  V30 79 C 5.4859 6.6395 0.9902 0
M  V30 80 H 3.9704 6.9361 2.4857 0
M  V30 81 N 6.7918 6.6109 0.6831 0
M  V30 82 C 4.5632 6.3493 -0.0998 0
M  V30 83 C 7.6700 6.8705 1.6361 0
M  V30 84 C 7.3020 7.1650 2.9471 0
M  V30 85 H 8.7124 6.8499 1.3520 0
M  V30 86 H 8.0569 7.3740 3.6881 0
M  V30 87 H 5.6342 7.4141 4.2789 0
M  V30 88 N 5.0149 6.0037 -1.2311 0
M  V30 89 H 3.4996 6.4354 0.1284 0
M  V30 90 H 4.3277 5.8106 -1.9526 0
M  V30 91 C 6.3703 10.5959 -3.4361 0
M  V30 92 C 6.5875 9.4238 -4.1498 0
M  V30 93 C 6.7853 8.2361 -3.4491 0
M  V30 94 H 6.6044 9.4307 -5.2287 0
M  V30 95 N 6.7743 8.1810 -2.1071 0
M  V30 96 C 7.0183 6.9788 -4.1470 0
M  V30 97 C 6.5740 9.3023 -1.4348 0
M  V30 98 C 6.3659 10.5331 -2.0516 0
M  V30 99 H 6.5845 9.2254 -0.3561 0
M  V30 100 H 6.2111 11.4185 -1.4559 0
M  V30 101 H 6.2144 11.5323 -3.9495 0
M  V30 102 N 7.1417 5.9009 -3.4889 0
M  V30 103 H 7.0743 7.0304 -5.2340 0
M  V30 104 H 7.3074 5.0680 -4.0465 0
M  V30 105 Zn 10.2093 -5.7393 0.1845 0 CHG=2
M  V30 106 C 8.3683 -10.2031 0.5040 0
M  V30 107 C 7.6014 -9.0519 0.4023 0
M  V30 108 C 8.2389 -7.8110 0.3505 0
M  V30 109 H 6.5250 -9.1110 0.3594 0
M  V30 110 N 9.5769 -7.7007 0.3958 0
M  V30 111 C 7.4705 -6.5881 0.2527 0
M  V30 112 C 10.3041 -8.8033 0.5045 0
M  V30 113 C 9.7482 -10.0757 0.5627 0
M  V30 114 H 11.3754 -8.6705 0.5526 0
M  V30 115 H 10.3841 -10.9419 0.6518 0
M  V30 116 H 7.9020 -11.1755 0.5397 0
M  V30 117 N 8.0229 -5.4325 0.1833 0
M  V30 118 H 6.3874 -6.7074 0.2620 0
M  V30 119 C 11.1274 -4.7799 4.9275 0
M  V30 120 C 11.4010 -3.9053 3.8834 0
M  V30 121 C 11.0677 -4.2828 2.5850 0
M  V30 122 H 11.8659 -2.9498 4.0719 0
M  V30 123 N 10.4910 -5.4628 2.3038 0
M  V30 124 C 11.3262 -3.4084 1.4494 0
M  V30 125 C 10.2373 -6.2925 3.3012 0
M  V30 126 C 10.5350 -5.9965 4.6295 0
M  V30 127 H 9.7818 -7.2375 3.0413 0
M  V30 128 H 10.3111 -6.7102 5.4062 0
M  V30 129 H 11.3758 -4.5183 5.9445 0
M  V30 130 N 10.9233 -3.7429 0.2947 0
M  V30 131 H 11.8585 -2.4804 1.6606 0
M  V30 132 H 11.1378 -3.0969 -0.4582 0
M  V30 133 C 14.8487 -6.7514 -1.2144 0
M  V30 134 C 13.7779 -6.5781 -2.0829 0
M  V30 135 C 12.5132 -6.3348 -1.5523 0
M  V30 136 H 13.9217 -6.6268 -3.1514 0
M  V30 137 N 12.2864 -6.2647 -0.2294 0
M  V30 138 C 11.3594 -6.1379 -2.4174 0
M  V30 139 C 13.3088 -6.4442 0.5908 0
M  V30 140 C 14.6070 -6.6875 0.1487 0
M  V30 141 H 13.0921 -6.3982 1.6493 0
M  V30 142 H 15.4047 -6.8263 0.8610 0
M  V30 143 H 15.8420 -6.9353 -1.5941 0
M  V30 144 N 10.2365 -5.8183 -1.9184 0
M  V30 145 H 11.5250 -6.2761 -3.4855 0
M  V30 146 H 9.4804 -5.7079 -2.5877 0
M  V30 147 Zn -10.2412 -5.8341 -0.3601 0 CHG=2
M  V30 148 C -8.3157 -10.2687 -0.5490 0
M  V30 149 C -7.5721 -9.0976 -0.5586 0
M  V30 150 C -8.2313 -7.8718 -0.4546 0
M  V30 151 H -6.4974 -9.1301 -0.6471 0
M  V30 152 N -9.5682 -7.7940 -0.3475 0
M  V30 153 C -7.4883 -6.6289 -0.4378 0
M  V30 154 C -10.2727 -8.9164 -0.3289 0
M  V30 155 C -9.6940 -10.1765 -0.4252 0
M  V30 156 H -11.3435 -8.8110 -0.2280 0
M  V30 157 H -10.3115 -11.0602 -0.4037 0
M  V30 158 H -7.8324 -11.2298 -0.6328 0
M  V30 159 N -8.0625 -5.4883 -0.3272 0
M  V30 160 H -6.4034 -6.7213 -0.4911 0
M  V30 161 C -11.1792 -5.2962 4.4405 0
M  V30 162 C -11.4134 -4.3199 3.4802 0
M  V30 163 C -11.0790 -4.5861 2.1548 0
M  V30 164 H -11.8504 -3.3717 3.7531 0
M  V30 165 N -10.5365 -5.7530 1.7701 0
M  V30 166 C -11.3018 -3.6035 1.1025 0
M  V30 167 C -10.3197 -6.6797 2.6877 0
M  V30 168 C -10.6227 -6.4987 4.0354 0
M  V30 169 H -9.8910 -7.6103 2.3440 0
M  V30 170 H -10.4303 -7.2882 4.7443 0
M  V30 171 H -11.4302 -5.1220 5.4755 0
M  V30 172 N -10.9124 -3.8475 -0.0786 0
M  V30 173 H -11.7998 -2.6794 1.3979 0
M  V30 174 H -11.1023 -3.1290 -0.7699 0
M  V30 175 C -14.8643 -6.7773 -1.8385 0
M  V30 176 C -13.7971 -6.5163 -2.6892 0
M  V30 177 C -12.5354 -6.2999 -2.1401 0
M  V30 178 H -13.9411 -6.4776 -3.7580 0
M  V30 179 N -12.3078 -6.3372 -0.8158 0
M  V30 180 C -11.3864 -6.0150 -2.9865 0
M  V30 181 C -13.3271 -6.5993 -0.0138 0
M  V30 182 C -14.6220 -6.8238 -0.4749 0
M  V30 183 H -13.1107 -6.6385 1.0451 0
M  V30 184 H -15.4169 -7.0329 0.2233 0
M  V30 185 H -15.8553 -6.9434 -2.2325 0
M  V30 186 N -10.2652 -5.7291 -2.4635 0
M  V30 187 H -11.5536 -6.0600 -4.0623 0
M  V30 188 H -9.5135 -5.5505 -3.1229 0
M  V30 189 Zn -7.1171 6.1556 0.0931 0 CHG=2
M  V30 190 C -11.9367 6.4399 0.2400 0
M  V30 191 C -11.2206 5.2541 0.1865 0
M  V30 192 C -9.8245 5.2983 0.1913 0
M  V30 193 H -11.7323 4.3058 0.1379 0
M  V30 194 N -9.1550 6.4623 0.2483 0
M  V30 195 C -9.0435 4.0829 0.1437 0
M  V30 196 C -9.8461 7.5923 0.3125 0
M  V30 197 C -11.2343 7.6346 0.3103 0
M  V30 198 H -9.2711 8.5054 0.3724 0
M  V30 199 H -11.7489 8.5806 0.3615 0
M  V30 200 H -13.0156 6.4347 0.2298 0
M  V30 201 N -7.7578 4.0859 0.1566 0
M  V30 202 H -9.6108 3.1533 0.1214 0
M  V30 203 C -5.8935 6.5808 4.8432 0
M  V30 204 C -4.9832 6.3665 3.8159 0
M  V30 205 C -5.4550 6.2603 2.5100 0
M  V30 206 H -3.9274 6.2838 4.0230 0
M  V30 207 N -6.7594 6.3546 2.2074 0
M  V30 208 C -4.5510 6.0346 1.3904 0
M  V30 209 C -7.6208 6.5627 3.1879 0
M  V30 210 C -7.2373 6.6830 4.5221 0
M  V30 211 H -8.6617 6.6425 2.9088 0
M  V30 212 H -7.9789 6.8565 5.2855 0
M  V30 213 H -5.5600 6.6691 5.8657 0
M  V30 214 N -5.0193 5.8730 0.2245 0
M  V30 215 H -3.4859 6.0052 1.6252 0
M  V30 216 H -4.3428 5.7161 -0.5154 0
M  V30 217 C -6.2676 10.7953 -1.4023 0
M  V30 218 C -6.5257 9.7254 -2.2503 0
M  V30 219 C -6.7393 8.4648 -1.6975 0
M  V30 220 H -6.5627 9.8662 -3.3195 0
M  V30 221 N -6.7061 8.2432 -0.3731 0
M  V30 222 C -7.0133 7.3094 -2.5409 0
M  V30 223 C -6.4655 9.2680 0.4279 0
M  V30 224 C -6.2384 10.5609 -0.0367 0
M  V30 225 H -6.4572 9.0587 1.4889 0
M  V30 226 H -6.0504 11.3619 0.6604 0
M  V30 227 H -6.0996 11.7846 -1.7993 0
M  V30 228 N -7.1525 6.1616 -2.0183 0
M  V30 229 H -7.0841 7.4964 -3.6122 0
M  V30 230 H -7.3465 5.4080 -2.6714 0
M  V30 END ATOM
M  V30 BEGIN BOND
M  V30 1 2 1 2
M  V30 2 1 2 3
M  V30 3 2 3 4
M  V30 4 1 4 5
M  V30 5 1 5 6
M  V30 6 2 6 7
M  V30 7 1 7 8
M  V30 8 2 8 9
M  V30 9 1 9 10
M  V30 10 2 10 11
M  V30 11 1 5 12
M  V30 12 2 12 13
M  V30 13 1 13 14
M  V30 14 2 14 15
M  V30 15 1 15 16
M  V30 16 2 16 17
M  V30 17 1 17 18
M  V30 18 2 18 19
M  V30 19 1 19 20
M  V30 20 1 20 21
M  V30 21 2 21 22
M  V30 22 1 22 23
M  V30 23 2 23 24
M  V30 24 1 24 25
M  V30 25 2 25 26
M  V30 26 1 20 27
M  V30 27 2 27 28
M  V30 28 1 28 29
M  V30 29 2 29 30
M  V30 30 1 30 31
M  V30 31 2 31 32
M  V30 32 1 19 33
M  V30 33 2 33 34
M  V30 34 1 15 35
M  V30 35 2 35 36
M  V30 36 1 4 37
M  V30 37 2 37 38
M  V30 38 1 38 1
M  V30 39 1 11 6
M  V30 40 1 36 12
M  V30 41 1 34 16
M  V30 42 1 26 21
M  V30 43 1 32 27
M  V30 44 1 2 39
M  V30 45 1 3 40
M  V30 46 1 7 41
M  V30 47 1 8 42
M  V30 48 1 10 43
M  V30 49 1 11 44
M  V30 50 1 13 45
M  V30 51 1 14 46
M  V30 52 1 17 47
M  V30 53 1 18 48
M  V30 54 1 22 49
M  V30 55 1 23 50
M  V30 56 1 25 51
M  V30 57 1 26 52
M  V30 58 1 28 53
M  V30 59 1 29 54
M  V30 60 1 31 55
M  V30 61 1 32 56
M  V30 62 1 33 57
M  V30 63 1 34 58
M  V30 64 1 35 59
M  V30 65 1 36 60
M  V30 66 1 37 61
M  V30 67 1 38 62
M  V30 68 1 64 74
M  V30 69 2 64 71
M  V30 70 1 65 64
M  V30 71 2 66 65
M  V30 72 1 66 68
M  V30 73 1 67 65
M  V30 74 2 68 70
M  V30 75 1 69 66
M  V30 76 1 70 71
M  V30 77 1 70 72
M  V30 78 1 71 73
M  V30 79 2 75 69
M  V30 80 1 76 69
M  V30 81 1 77 87
M  V30 82 2 77 84
M  V30 83 1 78 77
M  V30 84 2 79 78
M  V30 85 1 79 81
M  V30 86 1 80 78
M  V30 87 2 81 83
M  V30 88 1 82 79
M  V30 89 1 83 84
M  V30 90 1 83 85
M  V30 91 1 84 86
M  V30 92 2 88 82
M  V30 93 1 89 82
M  V30 94 1 90 88
M  V30 95 1 91 101
M  V30 96 2 91 98
M  V30 97 1 92 91
M  V30 98 2 93 92
M  V30 99 1 93 95
M  V30 100 1 94 92
M  V30 101 2 95 97
M  V30 102 1 96 93
M  V30 103 1 97 98
M  V30 104 1 97 99
M  V30 105 1 98 100
M  V30 106 2 102 96
M  V30 107 1 103 96
M  V30 108 1 104 102
M  V30 109 9 75 63
M  V30 110 9 68 63
M  V30 111 9 88 63
M  V30 112 9 81 63
M  V30 113 9 102 63
M  V30 114 9 95 63
M  V30 115 1 106 116
M  V30 116 2 106 113
M  V30 117 1 107 106
M  V30 118 2 108 107
M  V30 119 1 108 110
M  V30 120 1 109 107
M  V30 121 2 110 112
M  V30 122 1 111 108
M  V30 123 1 112 113
M  V30 124 1 112 114
M  V30 125 1 113 115
M  V30 126 2 117 111
M  V30 127 1 118 111
M  V30 128 1 119 129
M  V30 129 2 119 126
M  V30 130 1 120 119
M  V30 131 2 121 120
M  V30 132 1 121 123
M  V30 133 1 122 120
M  V30 134 2 123 125
M  V30 135 1 124 121
M  V30 136 1 125 126
M  V30 137 1 125 127
M  V30 138 1 126 128
M  V30 139 2 130 124
M  V30 140 1 131 124
M  V30 141 1 132 130
M  V30 142 1 133 143
M  V30 143 2 133 140
M  V30 144 1 134 133
M  V30 145 2 135 134
M  V30 146 1 135 137
M  V30 147 1 136 134
M  V30 148 2 137 139
M  V30 149 1 138 135
M  V30 150 1 139 140
M  V30 151 1 139 141
M  V30 152 1 140 142
M  V30 153 2 144 138
M  V30 154 1 145 138
M  V30 155 1 146 144
M  V30 156 9 117 105
M  V30 157 9 110 105
M  V30 158 9 130 105
M  V30 159 9 123 105
M  V30 160 9 144 105
M  V30 161 9 137 105
M  V30 162 1 148 158
M  V30 163 2 148 155
M  V30 164 1 149 148
M  V30 165 2 150 149
M  V30 166 1 150 152
M  V30 167 1 151 149
M  V30 168 2 152 154
M  V30 169 1 153 150
M  V30 170 1 154 155
M  V30 171 1 154 156
M  V30 172 1 155 157
M  V30 173 2 159 153
M  V30 174 1 160 153
M  V30 175 1 161 171
M  V30 176 2 161 168
M  V30 177 1 162 161
M  V30 178 2 163 162
M  V30 179 1 163 165
M  V30 180 1 164 162
M  V30 181 2 165 167
M  V30 182 1 166 163
M  V30 183 1 167 168
M  V30 184 1 167 169
M  V30 185 1 168 170
M  V30 186 2 172 166
M  V30 187 1 173 166
M  V30 188 1 174 172
M  V30 189 1 175 185
M  V30 190 2 175 182
M  V30 191 1 176 175
M  V30 192 2 177 176
M  V30 193 1 177 179
M  V30 194 1 178 176
M  V30 195 2 179 181
M  V30 196 1 180 177
M  V30 197 1 181 182
M  V30 198 1 181 183
M  V30 199 1 182 184
M  V30 200 2 186 180
M  V30 201 1 187 180
M  V30 202 1 188 186
M  V30 203 9 159 147
M  V30 204 9 152 147
M  V30 205 9 186 147
M  V30 206 9 179 147
M  V30 207 9 172 147
M  V30 208 9 165 147
M  V30 209 1 190 200
M  V30 210 2 190 197
M  V30 211 1 191 190
M  V30 212 2 192 191
M  V30 213 1 192 194
M  V30 214 1 193 191
M  V30 215 2 194 196
M  V30 216 1 195 192
M  V30 217 1 196 197
M  V30 218 1 196 198
M  V30 219 1 197 199
M  V30 220 2 201 195
M  V30 221 1 202 195
M  V30 222 1 203 213
M  V30 223 2 203 210
M  V30 224 1 204 203
M  V30 225 2 205 204
M  V30 226 1 205 207
M  V30 227 1 206 204
M  V30 228 2 207 209
M  V30 229 1 208 205
M  V30 230 1 209 210
M  V30 231 1 209 211
M  V30 232 1 210 212
M  V30 233 2 214 208
M  V30 234 1 215 208
M  V30 235 1 216 214
M  V30 236 1 217 227
M  V30 237 2 217 224
M  V30 238 1 218 217
M  V30 239 2 219 218
M  V30 240 1 219 221
M  V30 241 1 220 218
M  V30 242 2 221 223
M  V30 243 1 222 219
M  V30 244 1 223 224
M  V30 245 1 223 225
M  V30 246 1 224 226
M  V30 247 2 228 222
M  V30 248 1 229 222
M  V30 249 1 230 228
M  V30 250 9 201 189
M  V30 251 9 194 189
M  V30 252 9 228 189
M  V30 253 9 221 189
M  V30 254 9 214 189
M  V30 255 9 207 189
M  V30 256 1 24 75
M  V30 257 1 30 117
M  V30 258 1 9 159
M  V30 259 1 1 201
M  V30 END BOND
M  V30 END CTAB
M  END

$$$$
