
     RDKit          3D

  0  0  0  0  0  0  0  0  0  0999 V3000
M  V30 BEGIN CTAB
M  V30 COUNTS 236 266 0 0 0
M  V30 BEGIN ATOM
M  V30 1 C 7.3069 -5.3958 -0.6339 0
M  V30 2 C 6.1635 -5.1993 -1.4135 0
M  V30 3 C 5.4463 -4.0224 -1.3299 0
M  V30 4 C 5.8317 -3.0016 -0.4603 0
M  V30 5 C 5.0453 -1.7563 -0.3593 0
M  V30 6 C 5.6854 -0.5208 -0.3139 0
M  V30 7 C 4.9558 0.6631 -0.2206 0
M  V30 8 C 5.6596 1.9582 -0.1750 0
M  V30 9 C 5.2722 2.9713 0.7048 0
M  V30 10 C 5.9535 4.1715 0.7633 0
M  V30 11 C 7.0634 4.4008 -0.0519 0
M  V30 12 C 7.4461 3.3971 -0.9469 0
M  V30 13 C 6.7524 2.2056 -1.0084 0
M  V30 14 C 3.5653 0.5953 -0.1718 0
M  V30 15 C 2.8993 -0.6281 -0.2232 0
M  V30 16 C 1.4224 -0.6736 -0.1899 0
M  V30 17 C 0.7365 -1.5996 0.5944 0
M  V30 18 C -0.6467 -1.6216 0.6290 0
M  V30 19 C -1.3998 -0.7180 -0.1188 0
M  V30 20 C -2.8773 -0.7189 -0.0779 0
M  V30 21 C -3.5775 0.4826 0.0174 0
M  V30 22 C -4.9702 0.5067 0.0392 0
M  V30 23 C -5.7113 1.7783 0.1315 0
M  V30 24 C -6.8537 1.9952 -0.6416 0
M  V30 25 C -7.5809 3.1632 -0.5350 0
M  V30 26 C -7.1838 4.1737 0.3459 0
M  V30 27 C -6.0258 3.9757 1.1002 0
M  V30 28 C -5.3108 2.7983 0.9974 0
M  V30 29 C -5.6661 -0.6990 -0.0287 0
M  V30 30 C -4.9910 -1.9133 -0.1184 0
M  V30 31 C -5.7431 -3.1811 -0.1964 0
M  V30 32 C -5.3710 -4.1784 -1.0983 0
M  V30 33 C -6.0578 -5.3743 -1.1654 0
M  V30 34 C -7.1564 -5.6145 -0.3353 0
M  V30 35 C -7.5508 -4.6097 0.5490 0
M  V30 36 C -6.8504 -3.4210 0.6197 0
M  V30 37 C -3.5969 -1.9101 -0.1434 0
M  V30 38 C -0.7133 0.1998 -0.9129 0
M  V30 39 C 0.6682 0.2213 -0.9479 0
M  V30 40 C 3.6523 -1.7968 -0.3152 0
M  V30 41 C 6.9843 -3.1970 0.3034 0
M  V30 42 C 7.7148 -4.3662 0.2151 0
M  V30 43 H 5.8583 -5.9611 -2.1157 0
M  V30 44 H 4.5814 -3.8862 -1.9605 0
M  V30 45 H 6.7638 -0.4793 -0.3493 0
M  V30 46 H 4.4432 2.8013 1.3754 0
M  V30 47 H 5.6666 4.9216 1.4847 0
M  V30 48 H 8.2702 3.5709 -1.6232 0
M  V30 49 H 7.0535 1.4587 -1.7266 0
M  V30 50 H 2.9904 1.5071 -0.1016 0
M  V30 51 H 1.2912 -2.2965 1.2049 0
M  V30 52 H -1.1481 -2.3353 1.2655 0
M  V30 53 H -3.0282 1.4114 0.0665 0
M  V30 54 H -7.1682 1.2432 -1.3487 0
M  V30 55 H -8.4448 3.3142 -1.1657 0
M  V30 56 H -5.7254 4.7306 1.8110 0
M  V30 57 H -4.4428 2.6513 1.6225 0
M  V30 58 H -6.7457 -0.6916 -0.0096 0
M  V30 59 H -4.5419 -4.0084 -1.7676 0
M  V30 60 H -5.7656 -6.1171 -1.8930 0
M  V30 61 H -8.3795 -4.7918 1.2159 0
M  V30 62 H -7.1498 -2.6754 1.3409 0
M  V30 63 H -3.0646 -2.8470 -0.2122 0
M  V30 64 H -1.2697 0.8886 -1.5313 0
M  V30 65 H 1.1706 0.9263 -1.5936 0
M  V30 66 H 3.1474 -2.7505 -0.3501 0
M  V30 67 H 7.2966 -2.4323 0.9985 0
M  V30 68 H 8.5799 -4.5143 0.8431 0
M  V30 69 Zn 7.1120 7.6455 -0.1481 0 CHG=2
M  V30 70 C 11.9268 7.9655 0.2080 0
M  V30 71 C 11.2200 6.7726 0.1496 0
M  V30 72 C 9.8275 6.8109 0.0757 0
M  V30 73 H 11.7379 5.8262 0.1624 0
M  V30 74 N 9.1502 7.9712 0.0575 0
M  V30 75 C 9.0451 5.5909 0.0294 0
M  V30 76 C 9.8307 9.1073 0.1187 0
M  V30 77 C 11.2173 9.1572 0.1959 0
M  V30 78 H 9.2484 10.0180 0.1094 0
M  V30 79 H 11.7244 10.1076 0.2441 0
M  V30 80 H 13.0046 7.9660 0.2633 0
M  V30 81 N 7.7654 5.6091 0.0362 0
M  V30 82 H 9.6042 4.6553 0.0181 0
M  V30 83 C 5.7346 8.2687 4.5382 0
M  V30 84 C 4.8736 7.9145 3.5071 0
M  V30 85 C 5.3867 7.7698 2.2209 0
M  V30 86 H 3.8234 7.7541 3.6964 0
M  V30 87 N 6.6859 7.9572 1.9414 0
M  V30 88 C 4.5334 7.3998 1.0984 0
M  V30 89 C 7.5009 8.2953 2.9257 0
M  V30 90 C 7.0734 8.4641 4.2410 0
M  V30 91 H 8.5392 8.4432 2.6654 0
M  V30 92 H 7.7777 8.7441 5.0082 0
M  V30 93 H 5.3680 8.3905 5.5457 0
M  V30 94 N 5.0369 7.2459 -0.0529 0
M  V30 95 H 3.4737 7.2642 1.3195 0
M  V30 96 H 4.3959 6.9813 -0.7940 0
M  V30 97 C 6.1647 12.1642 -1.9071 0
M  V30 98 C 6.4604 11.0568 -2.6923 0
M  V30 99 C 6.7055 9.8356 -2.0689 0
M  V30 100 H 6.5020 11.1391 -3.7675 0
M  V30 101 N 6.6674 9.6869 -0.7345 0
M  V30 102 C 7.0209 8.6435 -2.8455 0
M  V30 103 C 6.3902 10.7471 0.0066 0
M  V30 104 C 6.1303 12.0050 -0.5309 0
M  V30 105 H 6.3772 10.5965 1.0774 0
M  V30 106 H 5.9130 12.8378 0.1189 0
M  V30 107 H 5.9716 13.1247 -2.3599 0
M  V30 108 N 7.1971 7.5340 -2.2562 0
M  V30 109 H 7.0883 8.7712 -3.9256 0
M  V30 110 H 7.4163 6.7490 -2.8633 0
M  V30 111 Zn 10.1381 -6.9950 -1.0388 0 CHG=2
M  V30 112 C 8.0745 -11.3768 -0.7550 0
M  V30 113 C 7.3765 -10.1787 -0.7057 0
M  V30 114 C 8.0844 -8.9780 -0.7602 0
M  V30 115 H 6.3006 -10.1717 -0.6252 0
M  V30 116 N 9.4230 -8.9475 -0.8607 0
M  V30 117 C 7.3978 -7.7026 -0.6904 0
M  V30 118 C 10.0849 -10.0948 -0.9012 0
M  V30 119 C 9.4573 -11.3339 -0.8506 0
M  V30 120 H 11.1611 -10.0273 -0.9729 0
M  V30 121 H 10.0412 -12.2397 -0.8858 0
M  V30 122 H 7.5533 -12.3209 -0.7173 0
M  V30 123 N 8.0320 -6.5925 -0.6818 0
M  V30 124 H 6.3108 -7.7417 -0.6124 0
M  V30 125 C 11.7879 -6.2865 3.5348 0
M  V30 126 C 11.8499 -5.3385 2.5208 0
M  V30 127 C 11.3258 -5.6557 1.2704 0
M  V30 128 H 12.2993 -4.3731 2.6954 0
M  V30 129 N 10.7619 -6.8458 1.0087 0
M  V30 130 C 11.3591 -4.7022 0.1679 0
M  V30 131 C 10.7063 -7.7444 1.9771 0
M  V30 132 C 11.2044 -7.5119 3.2570 0
M  V30 133 H 10.2505 -8.6930 1.7310 0
M  V30 134 H 11.1378 -8.2793 4.0118 0
M  V30 135 H 12.1884 -6.0725 4.5138 0
M  V30 136 N 10.8285 -5.0061 -0.9415 0
M  V30 137 H 11.8473 -3.7475 0.3653 0
M  V30 138 H 10.8837 -4.3024 -1.6713 0
M  V30 139 C 14.4276 -8.2377 -3.1485 0
M  V30 140 C 13.2630 -7.9334 -3.8428 0
M  V30 141 C 12.1132 -7.6170 -3.1233 0
M  V30 142 H 13.2475 -7.9398 -4.9218 0
M  V30 143 N 12.0855 -7.5957 -1.7800 0
M  V30 144 C 10.8676 -7.2892 -3.8025 0
M  V30 145 C 13.1964 -7.8946 -1.1264 0
M  V30 146 C 14.3912 -8.2205 -1.7635 0
M  V30 147 H 13.1398 -7.8803 -0.0466 0
M  V30 148 H 15.2682 -8.4571 -1.1822 0
M  V30 149 H 15.3358 -8.4839 -3.6770 0
M  V30 150 N 9.8463 -6.9521 -3.1284 0
M  V30 151 H 10.8779 -7.3505 -4.8904 0
M  V30 152 H 9.0160 -6.7407 -3.6747 0
M  V30 153 Zn -9.9607 -7.2793 -0.6394 0 CHG=2
M  V30 154 C -7.7766 -11.6106 -0.5455 0
M  V30 155 C -7.1075 -10.3960 -0.4988 0
M  V30 156 C -7.8469 -9.2132 -0.4976 0
M  V30 157 H -6.0296 -10.3627 -0.4628 0
M  V30 158 N -9.1889 -9.2154 -0.5417 0
M  V30 159 C -7.1903 -7.9220 -0.4307 0
M  V30 160 C -9.8229 -10.3784 -0.5802 0
M  V30 161 C -9.1628 -11.6017 -0.5831 0
M  V30 162 H -10.9025 -10.3375 -0.6059 0
M  V30 163 H -9.7248 -12.5214 -0.6143 0
M  V30 164 H -7.2307 -12.5413 -0.5501 0
M  V30 165 N -7.8514 -6.8293 -0.3707 0
M  V30 166 H -6.1002 -7.9341 -0.4030 0
M  V30 167 C -11.4225 -6.7370 4.0210 0
M  V30 168 C -11.5534 -5.7643 3.0375 0
M  V30 169 C -11.0777 -6.0340 1.7570 0
M  V30 170 H -12.0188 -4.8161 3.2584 0
M  V30 171 N -10.4960 -7.2013 1.4377 0
M  V30 172 C -11.1847 -5.0529 0.6839 0
M  V30 173 C -10.3746 -8.1235 2.3774 0
M  V30 174 C -10.8211 -7.9387 3.6839 0
M  V30 175 H -9.9063 -9.0528 2.0855 0
M  V30 176 H -10.7017 -8.7240 4.4133 0
M  V30 177 H -11.7843 -6.5600 5.0222 0
M  V30 178 N -10.6973 -5.3131 -0.4561 0
M  V30 179 H -11.6874 -4.1170 0.9292 0
M  V30 180 H -10.8031 -4.5920 -1.1629 0
M  V30 181 C -14.3061 -8.5770 -2.5965 0
M  V30 182 C -13.1807 -8.2252 -3.3316 0
M  V30 183 C -12.0087 -7.8983 -2.6538 0
M  V30 184 H -13.2120 -8.2030 -4.4100 0
M  V30 185 N -11.9229 -7.9113 -1.3128 0
M  V30 186 C -10.8024 -7.5209 -3.3767 0
M  V30 187 C -12.9966 -8.2554 -0.6205 0
M  V30 188 C -14.2097 -8.5951 -1.2143 0
M  V30 189 H -12.8933 -8.2679 0.4558 0
M  V30 190 H -15.0545 -8.8690 -0.6025 0
M  V30 191 H -15.2302 -8.8325 -3.0920 0
M  V30 192 N -9.7616 -7.1745 -2.7381 0
M  V30 193 H -10.8582 -7.5549 -4.4644 0
M  V30 194 H -8.9612 -6.9277 -3.3133 0
M  V30 195 Zn -7.3412 7.4153 0.2707 0 CHG=2
M  V30 196 C -12.1379 7.5787 0.8848 0
M  V30 197 C -11.3973 6.4095 0.7828 0
M  V30 198 C -10.0127 6.4929 0.6349 0
M  V30 199 H -11.8833 5.4468 0.8184 0
M  V30 200 N -9.3749 7.6745 0.5866 0
M  V30 201 C -9.1953 5.2989 0.5403 0
M  V30 202 C -10.0871 8.7879 0.6899 0
M  V30 203 C -11.4685 8.7928 0.8409 0
M  V30 204 H -9.5356 9.7169 0.6542 0
M  V30 205 H -12.0025 9.7262 0.9209 0
M  V30 206 H -13.2106 7.5444 0.9973 0
M  V30 207 N -7.9184 5.3583 0.4788 0
M  V30 208 H -9.7240 4.3458 0.5537 0
M  V30 209 C -5.7339 8.0615 4.8796 0
M  V30 210 C -4.9190 7.7385 3.8019 0
M  V30 211 C -5.4958 7.5836 2.5441 0
M  V30 212 H -3.8558 7.6098 3.9337 0
M  V30 213 N -6.8132 7.7320 2.3356 0
M  V30 214 C -4.6930 7.2450 1.3754 0
M  V30 215 C -7.5841 8.0405 3.3642 0
M  V30 216 C -7.0921 8.2167 4.6557 0
M  V30 217 H -8.6390 8.1574 3.1606 0
M  V30 218 H -7.7624 8.4714 5.4611 0
M  V30 219 H -5.3176 8.1901 5.8668 0
M  V30 220 N -5.2526 7.0808 0.2517 0
M  V30 221 H -3.6193 7.1412 1.5387 0
M  V30 222 H -4.6444 6.8393 -0.5242 0
M  V30 223 C -6.6351 11.9684 -1.5124 0
M  V30 224 C -6.9371 10.8549 -2.2866 0
M  V30 225 C -7.1090 9.6242 -1.6575 0
M  V30 226 H -7.0394 10.9398 -3.3575 0
M  V30 227 N -6.9941 9.4718 -0.3279 0
M  V30 228 C -7.4276 8.4254 -2.4225 0
M  V30 229 C -6.7113 10.5377 0.4029 0
M  V30 230 C -6.5213 11.8053 -0.1410 0
M  V30 231 H -6.6357 10.3836 1.4706 0
M  V30 232 H -6.2959 12.6422 0.5007 0
M  V30 233 H -6.4975 12.9362 -1.9698 0
M  V30 234 N -7.5363 7.3087 -1.8306 0
M  V30 235 H -7.5572 8.5549 -3.4966 0
M  V30 236 H -7.7628 6.5193 -2.4292 0
M  V30 END ATOM
M  V30 BEGIN BOND
M  V30 1 2 1 2
M  V30 2 1 2 3
M  V30 3 2 3 4
M  V30 4 1 4 5
M  V30 5 2 5 6
M  V30 6 1 6 7
M  V30 7 1 7 8
M  V30 8 2 8 9
M  V30 9 1 9 10
M  V30 10 2 10 11
M  V30 11 1 11 12
M  V30 12 2 12 13
M  V30 13 2 7 14
M  V30 14 1 14 15
M  V30 15 1 15 16
M  V30 16 2 16 17
M  V30 17 1 17 18
M  V30 18 2 18 19
M  V30 19 1 19 20
M  V30 20 2 20 21
M  V30 21 1 21 22
M  V30 22 1 22 23
M  V30 23 2 23 24
M  V30 24 1 24 25
M  V30 25 2 25 26
M  V30 26 1 26 27
M  V30 27 2 27 28
M  V30 28 2 22 29
M  V30 29 1 29 30
M  V30 30 1 30 31
M  V30 31 2 31 32
M  V30 32 1 32 33
M  V30 33 2 33 34
M  V30 34 1 34 35
M  V30 35 2 35 36
M  V30 36 2 30 37
M  V30 37 1 19 38
M  V30 38 2 38 39
M  V30 39 2 15 40
M  V30 40 1 4 41
M  V30 41 2 41 42
M  V30 42 1 42 1
M  V30 43 1 40 5
M  V30 44 1 13 8
M  V30 45 1 39 16
M  V30 46 1 37 20
M  V30 47 1 28 23
M  V30 48 1 36 31
M  V30 49 1 2 43
M  V30 50 1 3 44
M  V30 51 1 6 45
M  V30 52 1 9 46
M  V30 53 1 10 47
M  V30 54 1 12 48
M  V30 55 1 13 49
M  V30 56 1 14 50
M  V30 57 1 17 51
M  V30 58 1 18 52
M  V30 59 1 21 53
M  V30 60 1 24 54
M  V30 61 1 25 55
M  V30 62 1 27 56
M  V30 63 1 28 57
M  V30 64 1 29 58
M  V30 65 1 32 59
M  V30 66 1 33 60
M  V30 67 1 35 61
M  V30 68 1 36 62
M  V30 69 1 37 63
M  V30 70 1 38 64
M  V30 71 1 39 65
M  V30 72 1 40 66
M  V30 73 1 41 67
M  V30 74 1 42 68
M  V30 75 1 70 80
M  V30 76 2 70 77
M  V30 77 1 71 70
M  V30 78 2 72 71
M  V30 79 1 72 74
M  V30 80 1 73 71
M  V30 81 2 74 76
M  V30 82 1 75 72
M  V30 83 1 76 77
M  V30 84 1 76 78
M  V30 85 1 77 79
M  V30 86 2 81 75
M  V30 87 1 82 75
M  V30 88 1 83 93
M  V30 89 2 83 90
M  V30 90 1 84 83
M  V30 91 2 85 84
M  V30 92 1 85 87
M  V30 93 1 86 84
M  V30 94 2 87 89
M  V30 95 1 88 85
M  V30 96 1 89 90
M  V30 97 1 89 91
M  V30 98 1 90 92
M  V30 99 2 94 88
M  V30 100 1 95 88
M  V30 101 1 96 94
M  V30 102 1 97 107
M  V30 103 2 97 104
M  V30 104 1 98 97
M  V30 105 2 99 98
M  V30 106 1 99 101
M  V30 107 1 100 98
M  V30 108 2 101 103
M  V30 109 1 102 99
M  V30 110 1 103 104
M  V30 111 1 103 105
M  V30 112 1 104 106
M  V30 113 2 108 102
M  V30 114 1 109 102
M  V30 115 1 110 108
M  V30 116 9 81 69
M  V30 117 9 74 69
M  V30 118 9 94 69
M  V30 119 9 87 69
M  V30 120 9 108 69
M  V30 121 9 101 69
M  V30 122 1 112 122
M  V30 123 2 112 119
M  V30 124 1 113 112
M  V30 125 2 114 113
M  V30 126 1 114 116
M  V30 127 1 115 113
M  V30 128 2 116 118
M  V30 129 1 117 114
M  V30 130 1 118 119
M  V30 131 1 118 120
M  V30 132 1 119 121
M  V30 133 2 123 117
M  V30 134 1 124 117
M  V30 135 1 125 135
M  V30 136 2 125 132
M  V30 137 1 126 125
M  V30 138 2 127 126
M  V30 139 1 127 129
M  V30 140 1 128 126
M  V30 141 2 129 131
M  V30 142 1 130 127
M  V30 143 1 131 132
M  V30 144 1 131 133
M  V30 145 1 132 134
M  V30 146 2 136 130
M  V30 147 1 137 130
M  V30 148 1 138 136
M  V30 149 1 139 149
M  V30 150 2 139 146
M  V30 151 1 140 139
M  V30 152 2 141 140
M  V30 153 1 141 143
M  V30 154 1 142 140
M  V30 155 2 143 145
M  V30 156 1 144 141
M  V30 157 1 145 146
M  V30 158 1 145 147
M  V30 159 1 146 148
M  V30 160 2 150 144
M  V30 161 1 151 144
M  V30 162 1 152 150
M  V30 163 9 123 111
M  V30 164 9 116 111
M  V30 165 9 136 111
M  V30 166 9 129 111
M  V30 167 9 150 111
M  V30 168 9 143 111
M  V30 169 1 154 164
M  V30 170 2 154 161
M  V30 171 1 155 154
M  V30 172 2 156 155
M  V30 173 1 156 158
M  V30 174 1 157 155
M  V30 175 2 158 160
M  V30 176 1 159 156
M  V30 177 1 160 161
M  V30 178 1 160 162
M  V30 179 1 161 163
M  V30 180 2 165 159
M  V30 181 1 166 159
M  V30 182 1 167 177
M  V30 183 2 167 174
M  V30 184 1 168 167
M  V30 185 2 169 168
M  V30 186 1 169 171
M  V30 187 1 170 168
M  V30 188 2 171 173
M  V30 189 1 172 169
M  V30 190 1 173 174
M  V30 191 1 173 175
M  V30 192 1 174 176
M  V30 193 2 178 172
M  V30 194 1 179 172
M  V30 195 1 180 178
M  V30 196 1 181 191
M  V30 197 2 181 188
M  V30 198 1 182 181
M  V30 199 2 183 182
M  V30 200 1 183 185
M  V30 201 1 184 182
M  V30 202 2 185 187
M  V30 203 1 186 183
M  V30 204 1 187 188
M  V30 205 1 187 189
M  V30 206 1 188 190
M  V30 207 2 192 186
M  V30 208 1 193 186
M  V30 209 1 194 192
M  V30 210 9 165 153
M  V30 211 9 158 153
M  V30 212 9 192 153
M  V30 213 9 185 153
M  V30 214 9 178 153
M  V30 215 9 171 153
M  V30 216 1 196 206
M  V30 217 2 196 203
M  V30 218 1 197 196
M  V30 219 2 198 197
M  V30 220 1 198 200
M  V30 221 1 199 197
M  V30 222 2 200 202
M  V30 223 1 201 198
M  V30 224 1 202 203
M  V30 225 1 202 204
M  V30 226 1 203 205
M  V30 227 2 207 201
M  V30 228 1 208 201
M  V30 229 1 209 219
M  V30 230 2 209 216
M  V30 231 1 210 209
M  V30 232 2 211 210
M  V30 233 1 211 213
M  V30 234 1 212 210
M  V30 235 2 213 215
M  V30 236 1 214 211
M  V30 237 1 215 216
M  V30 238 1 215 217
M  V30 239 1 216 218
M  V30 240 2 220 214
M  V30 241 1 221 214
M  V30 242 1 222 220
M  V30 243 1 223 233
M  V30 244 2 223 230
M  V30 245 1 224 223
M  V30 246 2 225 224
M  V30 247 1 225 227
M  V30 248 1 226 224
M  V30 249 2 227 229
M  V30 250 1 228 225
M  V30 251 1 229 230
M  V30 252 1 229 231
M  V30 253 1 230 232
M  V30 254 2 234 228
M  V30 255 1 235 228
M  V30 256 1 236 234
M  V30 257 9 207 195
M  V30 258 9 200 195
M  V30 259 9 234 195
M  V30 260 9 227 195
M  V30 261 9 220 195
M  V30 262 9 213 195
M  V30 263 1 11 81
M  V30 264 1 1 123
M  V30 265 1 34 165
M  V30 266 1 26 207
M  V30 END BOND
M  V30 END CTAB
M  END

$$$$
