
     RDKit          3D

  0  0  0  0  0  0  0  0  0  0999 V3000
M  V30 BEGIN CTAB
M  V30 COUNTS 226 255 0 0 0
M  V30 BEGIN ATOM
M  V30 1 C -4.7961 -5.1672 -0.7296 0
M  V30 2 C -3.7701 -5.5694 0.1285 0
M  V30 3 C -2.6144 -4.8210 0.2403 0
M  V30 4 C -2.4263 -3.6583 -0.5087 0
M  V30 5 C -1.1631 -2.8983 -0.4260 0
M  V30 6 C 0.0525 -3.5737 -0.3721 0
M  V30 7 C 1.2520 -2.8694 -0.3070 0
M  V30 8 C 2.5340 -3.6051 -0.2519 0
M  V30 9 C 3.5875 -3.1817 0.5606 0
M  V30 10 C 4.7869 -3.8684 0.6041 0
M  V30 11 C 4.9745 -5.0308 -0.1493 0
M  V30 12 C 3.9113 -5.4830 -0.9335 0
M  V30 13 C 2.7278 -4.7738 -0.9953 0
M  V30 14 C 1.2139 -1.4749 -0.2931 0
M  V30 15 C 0.0126 -0.7579 -0.3424 0
M  V30 16 C -0.0179 0.7297 -0.3218 0
M  V30 17 C -1.2181 1.4459 -0.4016 0
M  V30 18 C -1.2584 2.8393 -0.3666 0
M  V30 19 C -2.5423 3.5713 -0.4367 0
M  V30 20 C -2.7924 4.6723 0.3873 0
M  V30 21 C -3.9816 5.3730 0.3178 0
M  V30 22 C -4.9853 4.9880 -0.5730 0
M  V30 23 C -4.7368 3.8938 -1.4085 0
M  V30 24 C -3.5392 3.2071 -1.3429 0
M  V30 25 C -0.0634 3.5462 -0.2717 0
M  V30 26 C 1.1522 2.8712 -0.2078 0
M  V30 27 C 2.4144 3.6343 -0.1349 0
M  V30 28 C 2.6055 4.7622 -0.9341 0
M  V30 29 C 3.7642 5.5085 -0.8542 0
M  V30 30 C 4.7876 5.1459 0.0257 0
M  V30 31 C 4.6153 4.0025 0.8065 0
M  V30 32 C 3.4471 3.2678 0.7299 0
M  V30 33 C 1.1581 1.4789 -0.2214 0
M  V30 34 C -1.1664 -1.5056 -0.4101 0
M  V30 35 C -3.4656 -3.2521 -1.3487 0
M  V30 36 C -4.6341 -3.9817 -1.4485 0
M  V30 37 H -3.8953 -6.4552 0.7336 0
M  V30 38 H -1.8480 -5.1403 0.9300 0
M  V30 39 H 0.0631 -4.6528 -0.3836 0
M  V30 40 H 3.4613 -2.3100 1.1853 0
M  V30 41 H 5.5732 -3.5279 1.2629 0
M  V30 42 H 4.0440 -6.3726 -1.5304 0
M  V30 43 H 1.9457 -5.1210 -1.6531 0
M  V30 44 H 2.1578 -0.9551 -0.2689 0
M  V30 45 H -2.1610 0.9280 -0.4717 0
M  V30 46 H -2.0505 4.9706 1.1126 0
M  V30 47 H -4.1630 6.2004 0.9868 0
M  V30 48 H -5.4722 3.6089 -2.1471 0
M  V30 49 H -3.3657 2.3883 -2.0250 0
M  V30 50 H -0.0786 4.6253 -0.2511 0
M  V30 51 H 1.8412 5.0519 -1.6389 0
M  V30 52 H 3.8951 6.3627 -1.5020 0
M  V30 53 H 5.3833 3.7264 1.5131 0
M  V30 54 H 3.3189 2.4134 1.3778 0
M  V30 55 H 2.1170 0.9888 -0.1776 0
M  V30 56 H -2.1247 -1.0128 -0.4289 0
M  V30 57 H -3.3417 -2.3698 -1.9585 0
M  V30 58 H -5.4147 -3.6704 -2.1264 0
M  V30 59 Zn 8.0442 5.3972 -0.0992 0 CHG=2
M  V30 60 C 8.0453 10.1977 0.5285 0
M  V30 61 C 6.9006 9.4177 0.4380 0
M  V30 62 C 7.0299 8.0375 0.2850 0
M  V30 63 H 5.9224 9.8700 0.4866 0
M  V30 64 N 8.2313 7.4395 0.2187 0
M  V30 65 C 5.8624 7.1817 0.2059 0
M  V30 66 C 9.3206 8.1889 0.3093 0
M  V30 67 C 9.2801 9.5697 0.4665 0
M  V30 68 H 10.2676 7.6702 0.2587 0
M  V30 69 H 10.1959 10.1346 0.5375 0
M  V30 70 H 7.9755 11.2681 0.6461 0
M  V30 71 N 5.9588 5.9085 0.1349 0
M  V30 72 H 4.8932 7.6800 0.2401 0
M  V30 73 C 8.7982 3.8189 4.5046 0
M  V30 74 C 8.4923 2.9917 3.4313 0
M  V30 75 C 8.2892 3.5621 2.1773 0
M  V30 76 H 8.4157 1.9234 3.5634 0
M  V30 77 N 8.3755 4.8851 1.9682 0
M  V30 78 C 7.9682 2.7465 1.0134 0
M  V30 79 C 8.6670 5.6679 2.9927 0
M  V30 80 C 8.8874 5.1830 4.2803 0
M  V30 81 H 8.7338 6.7270 2.7892 0
M  V30 82 H 9.1268 5.8633 5.0820 0
M  V30 83 H 8.9652 3.4077 5.4882 0
M  V30 84 N 7.7564 3.2985 -0.1061 0
M  V30 85 H 7.9206 1.6685 1.1762 0
M  V30 86 H 7.5358 2.6806 -0.8803 0
M  V30 87 C 12.5995 4.7942 -1.8864 0
M  V30 88 C 11.4776 5.0703 -2.6582 0
M  V30 89 C 10.2449 5.2159 -2.0264 0
M  V30 90 H 11.5575 5.1721 -3.7296 0
M  V30 91 N 10.0981 5.1005 -0.6955 0
M  V30 92 C 9.0376 5.5036 -2.7883 0
M  V30 93 C 11.1723 4.8427 0.0328 0
M  V30 94 C 12.4422 4.6794 -0.5143 0
M  V30 95 H 11.0234 4.7660 1.1012 0
M  V30 96 H 13.2852 4.4734 0.1260 0
M  V30 97 H 13.5690 4.6770 -2.3459 0
M  V30 98 N 7.9186 5.5845 -2.1948 0
M  V30 99 H 9.1608 5.6358 -3.8628 0
M  V30 100 H 7.1251 5.7913 -2.7946 0
M  V30 101 Zn 6.6267 -7.8953 0.0881 0 CHG=2
M  V30 102 C 10.9600 -5.7699 -0.4675 0
M  V30 103 C 9.7575 -5.0788 -0.4328 0
M  V30 104 C 8.5689 -5.7879 -0.2578 0
M  V30 105 H 9.7376 -4.0059 -0.5452 0
M  V30 106 N 8.5571 -7.1229 -0.1254 0
M  V30 107 C 7.2883 -5.1049 -0.2283 0
M  V30 108 C 9.7079 -7.7788 -0.1572 0
M  V30 109 C 10.9357 -7.1487 -0.3233 0
M  V30 110 H 9.6544 -8.8517 -0.0397 0
M  V30 111 H 11.8457 -7.7268 -0.3392 0
M  V30 112 H 11.8944 -5.2475 -0.6037 0
M  V30 113 N 6.1820 -5.7388 -0.1550 0
M  V30 114 H 7.3220 -4.0172 -0.3125 0
M  V30 115 C 6.5383 -7.7601 5.0240 0
M  V30 116 C 5.4407 -8.0437 4.2211 0
M  V30 117 C 5.5969 -8.0310 2.8370 0
M  V30 118 H 4.4838 -8.2801 4.6602 0
M  V30 119 N 6.7681 -7.7423 2.2485 0
M  V30 120 C 4.4921 -8.3600 1.9459 0
M  V30 121 C 7.8098 -7.4757 3.0188 0
M  V30 122 C 7.7470 -7.4746 4.4097 0
M  V30 123 H 8.7421 -7.2615 2.5155 0
M  V30 124 H 8.6300 -7.2628 4.9914 0
M  V30 125 H 6.4523 -7.7711 6.0996 0
M  V30 126 N 4.6647 -8.3423 0.6908 0
M  V30 127 H 3.5477 -8.6231 2.4222 0
M  V30 128 H 3.8598 -8.6027 0.1293 0
M  V30 129 C 7.8221 -12.6278 -0.4977 0
M  V30 130 C 7.4581 -11.7685 -1.5278 0
M  V30 131 C 7.1502 -10.4448 -1.2234 0
M  V30 132 H 7.4127 -12.1193 -2.5474 0
M  V30 133 N 7.1941 -9.9629 0.0317 0
M  V30 134 C 6.7644 -9.5019 -2.2623 0
M  V30 135 C 7.5475 -10.7862 1.0056 0
M  V30 136 C 7.8691 -12.1245 0.7926 0
M  V30 137 H 7.5842 -10.3685 2.0022 0
M  V30 138 H 8.1522 -12.7517 1.6231 0
M  V30 139 H 8.0646 -13.6597 -0.7006 0
M  V30 140 N 6.4300 -8.3165 -1.9515 0
M  V30 141 H 6.7809 -9.8724 -3.2866 0
M  V30 142 H 6.1858 -7.7173 -2.7349 0
M  V30 143 Zn -8.0372 -5.2998 -0.8223 0 CHG=2
M  V30 144 C -8.1907 -10.0824 -1.6168 0
M  V30 145 C -7.0214 -9.3571 -1.4326 0
M  V30 146 C -7.1034 -7.9850 -1.1968 0
M  V30 147 H -6.0602 -9.8452 -1.4756 0
M  V30 148 N -8.2827 -7.3431 -1.1432 0
M  V30 149 C -5.9083 -7.1830 -1.0153 0
M  V30 150 C -9.3958 -8.0413 -1.3166 0
M  V30 151 C -9.4025 -9.4111 -1.5549 0
M  V30 152 H -10.3240 -7.4902 -1.2590 0
M  V30 153 H -10.3362 -9.9341 -1.6876 0
M  V30 154 H -8.1572 -11.1447 -1.8034 0
M  V30 155 N -5.9693 -5.9124 -0.8922 0
M  V30 156 H -4.9573 -7.7157 -1.0288 0
M  V30 157 C -8.1783 -5.4754 4.1112 0
M  V30 158 C -7.7803 -4.3662 3.3757 0
M  V30 159 C -7.7982 -4.4382 1.9850 0
M  V30 160 H -7.4693 -3.4592 3.8709 0
M  V30 161 N -8.1733 -5.5463 1.3268 0
M  V30 162 C -7.4335 -3.2945 1.1625 0
M  V30 163 C -8.5526 -6.5984 2.0324 0
M  V30 164 C -8.5770 -6.6113 3.4253 0
M  V30 165 H -8.8603 -7.4708 1.4737 0
M  V30 166 H -8.9059 -7.4924 3.9528 0
M  V30 167 H -8.1831 -5.4493 5.1899 0
M  V30 168 N -7.4905 -3.3772 -0.1005 0
M  V30 169 H -7.1323 -2.3923 1.6965 0
M  V30 170 H -7.2350 -2.5393 -0.6128 0
M  V30 171 C -12.6707 -4.0223 -1.8471 0
M  V30 172 C -11.6534 -4.1200 -2.7887 0
M  V30 173 C -10.3762 -4.4777 -2.3645 0
M  V30 174 H -11.8472 -3.9250 -3.8323 0
M  V30 175 N -10.0898 -4.7367 -1.0770 0
M  V30 176 C -9.2713 -4.5930 -3.3066 0
M  V30 177 C -11.0640 -4.6440 -0.1868 0
M  V30 178 C -12.3681 -4.2882 -0.5211 0
M  V30 179 H -10.8035 -4.8658 0.8387 0
M  V30 180 H -13.1262 -4.2303 0.2438 0
M  V30 181 H -13.6719 -3.7505 -2.1444 0
M  V30 182 N -8.1047 -4.8510 -2.8795 0
M  V30 183 H -9.5095 -4.4430 -4.3593 0
M  V30 184 H -7.3876 -4.9315 -3.5952 0
M  V30 185 Zn -6.7040 7.8368 -0.7922 0 CHG=2
M  V30 186 C -10.9868 5.5487 -0.8595 0
M  V30 187 C -9.7605 4.9021 -0.8120 0
M  V30 188 C -8.5911 5.6615 -0.7611 0
M  V30 189 H -9.7072 3.8244 -0.8147 0
M  V30 190 N -8.6200 7.0025 -0.7557 0
M  V30 191 C -7.2908 5.0216 -0.6953 0
M  V30 192 C -9.7938 7.6158 -0.7936 0
M  V30 193 C -11.0045 6.9350 -0.8466 0
M  V30 194 H -9.7744 8.6959 -0.7768 0
M  V30 195 H -11.9340 7.4807 -0.8767 0
M  V30 196 H -11.9071 4.9871 -0.9033 0
M  V30 197 N -6.2012 5.6837 -0.6066 0
M  V30 198 H -7.2966 3.9301 -0.6971 0
M  V30 199 C -6.3362 9.1357 3.9296 0
M  V30 200 C -5.3468 9.3390 2.9753 0
M  V30 201 C -5.5633 8.8900 1.6751 0
M  V30 202 H -4.4270 9.8408 3.2335 0
M  V30 203 N -6.6942 8.2646 1.3092 0
M  V30 204 C -4.5652 9.0782 0.6295 0
M  V30 205 C -7.6327 8.0755 2.2217 0
M  V30 206 C -7.5008 8.4916 3.5442 0
M  V30 207 H -8.5332 7.5760 1.8931 0
M  V30 208 H -8.2986 8.3180 4.2488 0
M  V30 209 H -6.2009 9.4763 4.9446 0
M  V30 210 N -4.7754 8.6136 -0.5308 0
M  V30 211 H -3.6620 9.6201 0.9100 0
M  V30 212 H -4.0468 8.7819 -1.2175 0
M  V30 213 C -8.2344 12.1785 -2.5718 0
M  V30 214 C -7.8098 11.1077 -3.3493 0
M  V30 215 C -7.4113 9.9321 -2.7172 0
M  V30 216 H -7.7874 11.1835 -4.4256 0
M  V30 217 N -7.4204 9.7920 -1.3799 0
M  V30 218 C -6.9612 8.7814 -3.4850 0
M  V30 219 C -7.8318 10.8146 -0.6475 0
M  V30 220 C -8.2480 12.0260 -1.1945 0
M  V30 221 H -7.8383 10.6693 0.4242 0
M  V30 222 H -8.5761 12.8266 -0.5506 0
M  V30 223 H -8.5476 13.1034 -3.0315 0
M  V30 224 N -6.5734 7.7288 -2.8890 0
M  V30 225 H -6.9803 8.8846 -4.5695 0
M  V30 226 H -6.2756 6.9728 -3.4985 0
M  V30 END ATOM
M  V30 BEGIN BOND
M  V30 1 2 1 2
M  V30 2 1 2 3
M  V30 3 2 3 4
M  V30 4 1 4 5
M  V30 5 2 5 6
M  V30 6 1 6 7
M  V30 7 1 7 8
M  V30 8 2 8 9
M  V30 9 1 9 10
M  V30 10 2 10 11
M  V30 11 1 11 12
M  V30 12 2 12 13
M  V30 13 2 7 14
M  V30 14 1 14 15
M  V30 15 1 15 16
M  V30 16 2 16 17
M  V30 17 1 17 18
M  V30 18 1 18 19
M  V30 19 2 19 20
M  V30 20 1 20 21
M  V30 21 2 21 22
M  V30 22 1 22 23
M  V30 23 2 23 24
M  V30 24 2 18 25
M  V30 25 1 25 26
M  V30 26 1 26 27
M  V30 27 2 27 28
M  V30 28 1 28 29
M  V30 29 2 29 30
M  V30 30 1 30 31
M  V30 31 2 31 32
M  V30 32 2 26 33
M  V30 33 2 15 34
M  V30 34 1 4 35
M  V30 35 2 35 36
M  V30 36 1 36 1
M  V30 37 1 34 5
M  V30 38 1 13 8
M  V30 39 1 33 16
M  V30 40 1 24 19
M  V30 41 1 32 27
M  V30 42 1 2 37
M  V30 43 1 3 38
M  V30 44 1 6 39
M  V30 45 1 9 40
M  V30 46 1 10 41
M  V30 47 1 12 42
M  V30 48 1 13 43
M  V30 49 1 14 44
M  V30 50 1 17 45
M  V30 51 1 20 46
M  V30 52 1 21 47
M  V30 53 1 23 48
M  V30 54 1 24 49
M  V30 55 1 25 50
M  V30 56 1 28 51
M  V30 57 1 29 52
M  V30 58 1 31 53
M  V30 59 1 32 54
M  V30 60 1 33 55
M  V30 61 1 34 56
M  V30 62 1 35 57
M  V30 63 1 36 58
M  V30 64 1 60 70
M  V30 65 2 60 67
M  V30 66 1 61 60
M  V30 67 2 62 61
M  V30 68 1 62 64
M  V30 69 1 63 61
M  V30 70 2 64 66
M  V30 71 1 65 62
M  V30 72 1 66 67
M  V30 73 1 66 68
M  V30 74 1 67 69
M  V30 75 2 71 65
M  V30 76 1 72 65
M  V30 77 1 73 83
M  V30 78 2 73 80
M  V30 79 1 74 73
M  V30 80 2 75 74
M  V30 81 1 75 77
M  V30 82 1 76 74
M  V30 83 2 77 79
M  V30 84 1 78 75
M  V30 85 1 79 80
M  V30 86 1 79 81
M  V30 87 1 80 82
M  V30 88 2 84 78
M  V30 89 1 85 78
M  V30 90 1 86 84
M  V30 91 1 87 97
M  V30 92 2 87 94
M  V30 93 1 88 87
M  V30 94 2 89 88
M  V30 95 1 89 91
M  V30 96 1 90 88
M  V30 97 2 91 93
M  V30 98 1 92 89
M  V30 99 1 93 94
M  V30 100 1 93 95
M  V30 101 1 94 96
M  V30 102 2 98 92
M  V30 103 1 99 92
M  V30 104 1 100 98
M  V30 105 9 71 59
M  V30 106 9 64 59
M  V30 107 9 98 59
M  V30 108 9 91 59
M  V30 109 9 84 59
M  V30 110 9 77 59
M  V30 111 1 102 112
M  V30 112 2 102 109
M  V30 113 1 103 102
M  V30 114 2 104 103
M  V30 115 1 104 106
M  V30 116 1 105 103
M  V30 117 2 106 108
M  V30 118 1 107 104
M  V30 119 1 108 109
M  V30 120 1 108 110
M  V30 121 1 109 111
M  V30 122 2 113 107
M  V30 123 1 114 107
M  V30 124 1 115 125
M  V30 125 2 115 122
M  V30 126 1 116 115
M  V30 127 2 117 116
M  V30 128 1 117 119
M  V30 129 1 118 116
M  V30 130 2 119 121
M  V30 131 1 120 117
M  V30 132 1 121 122
M  V30 133 1 121 123
M  V30 134 1 122 124
M  V30 135 2 126 120
M  V30 136 1 127 120
M  V30 137 1 128 126
M  V30 138 1 129 139
M  V30 139 2 129 136
M  V30 140 1 130 129
M  V30 141 2 131 130
M  V30 142 1 131 133
M  V30 143 1 132 130
M  V30 144 2 133 135
M  V30 145 1 134 131
M  V30 146 1 135 136
M  V30 147 1 135 137
M  V30 148 1 136 138
M  V30 149 2 140 134
M  V30 150 1 141 134
M  V30 151 1 142 140
M  V30 152 9 113 101
M  V30 153 9 106 101
M  V30 154 9 140 101
M  V30 155 9 133 101
M  V30 156 9 126 101
M  V30 157 9 119 101
M  V30 158 1 144 154
M  V30 159 2 144 151
M  V30 160 1 145 144
M  V30 161 2 146 145
M  V30 162 1 146 148
M  V30 163 1 147 145
M  V30 164 2 148 150
M  V30 165 1 149 146
M  V30 166 1 150 151
M  V30 167 1 150 152
M  V30 168 1 151 153
M  V30 169 2 155 149
M  V30 170 1 156 149
M  V30 171 1 157 167
M  V30 172 2 157 164
M  V30 173 1 158 157
M  V30 174 2 159 158
M  V30 175 1 159 161
M  V30 176 1 160 158
M  V30 177 2 161 163
M  V30 178 1 162 159
M  V30 179 1 163 164
M  V30 180 1 163 165
M  V30 181 1 164 166
M  V30 182 2 168 162
M  V30 183 1 169 162
M  V30 184 1 170 168
M  V30 185 1 171 181
M  V30 186 2 171 178
M  V30 187 1 172 171
M  V30 188 2 173 172
M  V30 189 1 173 175
M  V30 190 1 174 172
M  V30 191 2 175 177
M  V30 192 1 176 173
M  V30 193 1 177 178
M  V30 194 1 177 179
M  V30 195 1 178 180
M  V30 196 2 182 176
M  V30 197 1 183 176
M  V30 198 1 184 182
M  V30 199 9 155 143
M  V30 200 9 148 143
M  V30 201 9 182 143
M  V30 202 9 175 143
M  V30 203 9 168 143
M  V30 204 9 161 143
M  V30 205 1 186 196
M  V30 206 2 186 193
M  V30 207 1 187 186
M  V30 208 2 188 187
M  V30 209 1 188 190
M  V30 210 1 189 187
M  V30 211 2 190 192
M  V30 212 1 191 188
M  V30 213 1 192 193
M  V30 214 1 192 194
M  V30 215 1 193 195
M  V30 216 2 197 191
M  V30 217 1 198 191
M  V30 218 1 199 209
M  V30 219 2 199 206
M  V30 220 1 200 199
M  V30 221 2 201 200
M  V30 222 1 201 203
M  V30 223 1 202 200
M  V30 224 2 203 205
M  V30 225 1 204 201
M  V30 226 1 205 206
M  V30 227 1 205 207
M  V30 228 1 206 208
M  V30 229 2 210 204
M  V30 230 1 211 204
M  V30 231 1 212 210
M  V30 232 1 213 223
M  V30 233 2 213 220
M  V30 234 1 214 213
M  V30 235 2 215 214
M  V30 236 1 215 217
M  V30 237 1 216 214
M  V30 238 2 217 219
M  V30 239 1 218 215
M  V30 240 1 219 220
M  V30 241 1 219 221
M  V30 242 1 220 222
M  V30 243 2 224 218
M  V30 244 1 225 218
M  V30 245 1 226 224
M  V30 246 9 197 185
M  V30 247 9 190 185
M  V30 248 9 224 185
M  V30 249 9 217 185
M  V30 250 9 210 185
M  V30 251 9 203 185
M  V30 252 1 30 71
M  V30 253 1 11 113
M  V30 254 1 1 155
M  V30 255 1 22 197
M  V30 END BOND
M  V30 END CTAB
M  END

$$$$
