
     RDKit          3D

  0  0  0  0  0  0  0  0  0  0999 V3000
M  V30 BEGIN CTAB
M  V30 COUNTS 216 244 0 0 0
M  V30 BEGIN ATOM
M  V30 1 C -4.8194 2.9971 0.4038 0
M  V30 2 C -3.8402 3.4214 -0.4970 0
M  V30 3 C -2.7008 2.6689 -0.7111 0
M  V30 4 C -2.4781 1.4718 -0.0253 0
M  V30 5 C -1.2307 0.6960 -0.1944 0
M  V30 6 C -0.0091 1.3673 -0.2072 0
M  V30 7 C 1.2219 0.7155 -0.2476 0
M  V30 8 C 2.4501 1.5175 -0.4363 0
M  V30 9 C 2.7002 2.6818 0.2932 0
M  V30 10 C 3.8149 3.4624 0.0464 0
M  V30 11 C 4.7323 3.1050 -0.9428 0
M  V30 12 C 4.4802 1.9443 -1.6825 0
M  V30 13 C 3.3637 1.1710 -1.4333 0
M  V30 14 C 1.2348 -0.6912 -0.1965 0
M  V30 15 C 2.4798 -1.4717 -0.0311 0
M  V30 16 C 2.7108 -2.6514 -0.7438 0
M  V30 17 C 3.8468 -3.4102 -0.5337 0
M  V30 18 C 4.8142 -3.0098 0.3904 0
M  V30 19 C 4.5810 -1.8377 1.1177 0
M  V30 20 C 3.4369 -1.0910 0.9118 0
M  V30 21 C 0.0135 -1.3618 -0.2420 0
M  V30 22 C -1.2169 -0.7089 -0.2813 0
M  V30 23 C -2.4428 -1.5052 -0.5057 0
M  V30 24 C -2.7024 -2.6873 0.1912 0
M  V30 25 C -3.8146 -3.4603 -0.0886 0
M  V30 26 C -4.7199 -3.0771 -1.0793 0
M  V30 27 C -4.4581 -1.8984 -1.7864 0
M  V30 28 C -3.3441 -1.1328 -1.5045 0
M  V30 29 C -3.4472 1.0668 0.8951 0
M  V30 30 C -4.5947 1.8073 1.1045 0
M  V30 31 H -4.0036 4.3317 -1.0538 0
M  V30 32 H -1.9798 3.0042 -1.4418 0
M  V30 33 H -0.0154 2.4477 -0.1922 0
M  V30 34 H 2.0214 2.9696 1.0825 0
M  V30 35 H 4.0032 4.3415 0.6436 0
M  V30 36 H 5.1409 1.6717 -2.4919 0
M  V30 37 H 3.1834 0.2957 -2.0387 0
M  V30 38 H 1.9993 -2.9675 -1.4922 0
M  V30 39 H 4.0169 -4.3064 -1.1111 0
M  V30 40 H 5.2799 -1.5333 1.8828 0
M  V30 41 H 3.2733 -0.2061 1.5083 0
M  V30 42 H 0.0198 -2.4422 -0.2544 0
M  V30 43 H -2.0333 -2.9957 0.9809 0
M  V30 44 H -4.0107 -4.3540 0.4840 0
M  V30 45 H -5.1091 -1.6047 -2.5963 0
M  V30 46 H -3.1559 -0.2427 -2.0854 0
M  V30 47 H -3.2906 0.1673 1.4712 0
M  V30 48 H -5.3035 1.4832 1.8522 0
M  V30 49 Zn 6.1771 6.0735 -1.5197 0 CHG=2
M  V30 50 C 10.5539 4.1000 -2.1748 0
M  V30 51 C 9.4032 3.3699 -1.9128 0
M  V30 52 C 8.2048 4.0458 -1.6817 0
M  V30 53 H 9.4302 2.2914 -1.8937 0
M  V30 54 N 8.1324 5.3861 -1.7051 0
M  V30 55 C 6.9857 3.3162 -1.3945 0
M  V30 56 C 9.2357 6.0793 -1.9446 0
M  V30 57 C 10.4696 5.4838 -2.1845 0
M  V30 58 H 9.1394 7.1556 -1.9418 0
M  V30 59 H 11.3389 6.0929 -2.3750 0
M  V30 60 H 11.4929 3.6034 -2.3646 0
M  V30 61 N 5.8666 3.8947 -1.1766 0
M  V30 62 H 7.0825 2.2298 -1.3503 0
M  V30 63 C 6.2543 7.4844 3.1888 0
M  V30 64 C 5.1462 7.5795 2.3557 0
M  V30 65 C 5.2448 7.1122 1.0474 0
M  V30 66 H 4.2247 8.0136 2.7122 0
M  V30 67 N 6.3733 6.5702 0.5607 0
M  V30 68 C 4.1201 7.1903 0.1247 0
M  V30 69 C 7.4257 6.4857 1.3568 0
M  V30 70 C 7.4157 6.9271 2.6785 0
M  V30 71 H 8.3206 6.0540 0.9313 0
M  V30 72 H 8.3029 6.8407 3.2857 0
M  V30 73 H 6.2115 7.8418 4.2063 0
M  V30 74 N 4.2237 6.6981 -1.0384 0
M  V30 75 H 3.2192 7.6793 0.4971 0
M  V30 76 H 3.4116 6.7923 -1.6398 0
M  V30 77 C 7.0083 10.4682 -3.5926 0
M  V30 78 C 6.6318 9.3224 -4.2834 0
M  V30 79 C 6.4383 8.1397 -3.5730 0
M  V30 80 H 6.4896 9.3461 -5.3530 0
M  V30 81 N 6.6054 8.0614 -2.2404 0
M  V30 82 C 6.0376 6.9151 -4.2478 0
M  V30 83 C 6.9714 9.1556 -1.5918 0
M  V30 84 C 7.1827 10.3806 -2.2205 0
M  V30 85 H 7.1096 9.0606 -0.5234 0
M  V30 86 H 7.4810 11.2412 -1.6429 0
M  V30 87 H 7.1635 11.4005 -4.1141 0
M  V30 88 N 5.8086 5.8610 -3.5754 0
M  V30 89 H 5.9474 6.9658 -5.3322 0
M  V30 90 H 5.5359 5.0515 -4.1251 0
M  V30 91 Zn -6.1584 -6.0279 -1.7500 0 CHG=2
M  V30 92 C -10.5282 -4.0372 -2.3991 0
M  V30 93 C -9.3803 -3.3143 -2.1066 0
M  V30 94 C -8.1844 -3.9963 -1.8805 0
M  V30 95 H -9.4074 -2.2367 -2.0602 0
M  V30 96 N -8.1117 -5.3355 -1.9375 0
M  V30 97 C -6.9683 -3.2748 -1.5616 0
M  V30 98 C -9.2126 -6.0221 -2.2061 0
M  V30 99 C -10.4439 -5.4202 -2.4434 0
M  V30 100 H -9.1163 -7.0981 -2.2300 0
M  V30 101 H -11.3112 -6.0240 -2.6584 0
M  V30 102 H -11.4652 -3.5355 -2.5858 0
M  V30 103 N -5.8519 -3.8594 -1.3461 0
M  V30 104 H -7.0652 -2.1898 -1.4908 0
M  V30 105 C -6.2821 -7.5569 2.9204 0
M  V30 106 C -5.1657 -7.6308 2.0963 0
M  V30 107 C -5.2515 -7.1312 0.7991 0
M  V30 108 H -4.2475 -8.0731 2.4511 0
M  V30 109 N -6.3755 -6.5779 0.3148 0
M  V30 110 C -4.1175 -7.1856 -0.1139 0
M  V30 111 C -7.4359 -6.5137 1.1022 0
M  V30 112 C -7.4388 -6.9877 2.4125 0
M  V30 113 H -8.3268 -6.0721 0.6785 0
M  V30 114 H -8.3320 -6.9169 3.0128 0
M  V30 115 H -6.2492 -7.9394 3.9291 0
M  V30 116 N -4.2097 -6.6641 -1.2652 0
M  V30 117 H -3.2201 -7.6834 0.2551 0
M  V30 118 H -3.3915 -6.7427 -1.8606 0
M  V30 119 C -6.9621 -10.3674 -3.9456 0
M  V30 120 C -6.5801 -9.2034 -4.6023 0
M  V30 121 C -6.3960 -8.0394 -3.8594 0
M  V30 122 H -6.4265 -9.1991 -5.6706 0
M  V30 123 N -6.5774 -7.9961 -2.5270 0
M  V30 124 C -5.9899 -6.7972 -4.4976 0
M  V30 125 C -6.9485 -9.1073 -1.9110 0
M  V30 126 C -7.1512 -10.3157 -2.5737 0
M  V30 127 H -7.0982 -9.0403 -0.8421 0
M  V30 128 H -7.4542 -11.1915 -2.0219 0
M  V30 129 H -7.1102 -11.2859 -4.4928 0
M  V30 130 N -5.7692 -5.7609 -3.7955 0
M  V30 131 H -5.8884 -6.8193 -5.5820 0
M  V30 132 H -5.4918 -4.9370 -4.3210 0
M  V30 133 Zn 6.3051 -5.9742 0.7318 0 CHG=2
M  V30 134 C 10.7183 -4.0141 1.1758 0
M  V30 135 C 9.5542 -3.2743 1.0238 0
M  V30 136 C 8.3366 -3.9404 0.8807 0
M  V30 137 H 9.5865 -2.1959 1.0197 0
M  V30 138 N 8.2602 -5.2806 0.8835 0
M  V30 139 C 7.1001 -3.2014 0.7122 0
M  V30 140 C 9.3744 -5.9832 1.0246 0
M  V30 141 C 10.6270 -5.3976 1.1751 0
M  V30 142 H 9.2696 -7.0588 1.0241 0
M  V30 143 H 11.5044 -6.0135 1.2907 0
M  V30 144 H 11.6731 -3.5250 1.2925 0
M  V30 145 N 5.9715 -3.7800 0.5546 0
M  V30 146 H 7.1935 -2.1141 0.6951 0
M  V30 147 C 5.4248 -6.0041 5.5983 0
M  V30 148 C 4.4607 -6.2039 4.6182 0
M  V30 149 C 4.8418 -6.1652 3.2788 0
M  V30 150 H 3.4334 -6.3947 4.8875 0
M  V30 151 N 6.1077 -5.9309 2.8973 0
M  V30 152 C 3.8829 -6.4073 2.2117 0
M  V30 153 C 7.0213 -5.7469 3.8357 0
M  V30 154 C 6.7314 -5.7760 5.1980 0
M  V30 155 H 8.0346 -5.5770 3.5008 0
M  V30 156 H 7.5174 -5.6302 5.9220 0
M  V30 157 H 5.1633 -6.0351 6.6449 0
M  V30 158 N 4.2513 -6.3543 1.0000 0
M  V30 159 H 2.8642 -6.6413 2.5222 0
M  V30 160 H 3.5365 -6.5594 0.3091 0
M  V30 161 C 7.3335 -10.7201 -0.0243 0
M  V30 162 C 7.2078 -9.7669 -1.0282 0
M  V30 163 C 6.9165 -8.4515 -0.6751 0
M  V30 164 H 7.3319 -10.0392 -2.0652 0
M  V30 165 N 6.7574 -8.0639 0.6038 0
M  V30 166 C 6.7667 -7.4158 -1.6849 0
M  V30 167 C 6.8853 -8.9764 1.5536 0
M  V30 168 C 7.1693 -10.3149 1.2908 0
M  V30 169 H 6.7627 -8.6345 2.5720 0
M  V30 170 H 7.2634 -11.0176 2.1036 0
M  V30 171 H 7.5571 -11.7482 -0.2654 0
M  V30 172 N 6.4209 -6.2413 -1.3438 0
M  V30 173 H 6.9596 -7.7092 -2.7161 0
M  V30 174 H 6.3505 -5.5750 -2.1074 0
M  V30 175 Zn -6.3156 5.9509 0.8005 0 CHG=2
M  V30 176 C -10.7340 3.9811 1.1355 0
M  V30 177 C -9.5678 3.2452 0.9804 0
M  V30 178 C -8.3486 3.9144 0.8703 0
M  V30 179 H -9.5999 2.1672 0.9487 0
M  V30 180 N -8.2725 5.2541 0.9078 0
M  V30 181 C -7.1097 3.1798 0.6999 0
M  V30 182 C -9.3885 5.9532 1.0518 0
M  V30 183 C -10.6429 5.3641 1.1708 0
M  V30 184 H -9.2839 7.0284 1.0797 0
M  V30 185 H -11.5220 5.9770 1.2902 0
M  V30 186 H -11.6902 3.4894 1.2271 0
M  V30 187 N -5.9794 3.7624 0.5720 0
M  V30 188 H -7.2024 2.0933 0.6542 0
M  V30 189 C -5.5036 5.8527 5.6782 0
M  V30 190 C -4.5257 6.0769 4.7172 0
M  V30 191 C -4.8882 6.0742 3.3721 0
M  V30 192 H -3.5020 6.2590 5.0057 0
M  V30 193 N -6.1488 5.8519 2.9669 0
M  V30 194 C -3.9142 6.3429 2.3252 0
M  V30 195 C -7.0756 5.6445 3.8873 0
M  V30 196 C -6.8047 5.6371 5.2538 0
M  V30 197 H -8.0844 5.4850 3.5340 0
M  V30 198 H -7.6009 5.4733 5.9626 0
M  V30 199 H -5.2567 5.8555 6.7287 0
M  V30 200 N -4.2655 6.3222 1.1075 0
M  V30 201 H -2.8997 6.5673 2.6559 0
M  V30 202 H -3.5409 6.5443 0.4323 0
M  V30 203 C -7.3266 10.7156 0.1479 0
M  V30 204 C -7.1891 9.7872 -0.8775 0
M  V30 205 C -6.9050 8.4628 -0.5531 0
M  V30 206 H -7.2988 10.0853 -1.9091 0
M  V30 207 N -6.7640 8.0435 0.7178 0
M  V30 208 C -6.7432 7.4521 -1.5860 0
M  V30 209 C -6.9030 8.9326 1.6881 0
M  V30 210 C -7.1809 10.2777 1.4546 0
M  V30 211 H -6.7948 8.5654 2.6993 0
M  V30 212 H -7.2845 10.9604 2.2832 0
M  V30 213 H -7.5449 11.7498 -0.0708 0
M  V30 214 N -6.4032 6.2691 -1.2694 0
M  V30 215 H -6.9223 7.7710 -2.6121 0
M  V30 216 H -6.3236 5.6216 -2.0481 0
M  V30 END ATOM
M  V30 BEGIN BOND
M  V30 1 2 1 2
M  V30 2 1 2 3
M  V30 3 2 3 4
M  V30 4 1 4 5
M  V30 5 2 5 6
M  V30 6 1 6 7
M  V30 7 1 7 8
M  V30 8 2 8 9
M  V30 9 1 9 10
M  V30 10 2 10 11
M  V30 11 1 11 12
M  V30 12 2 12 13
M  V30 13 2 7 14
M  V30 14 1 14 15
M  V30 15 2 15 16
M  V30 16 1 16 17
M  V30 17 2 17 18
M  V30 18 1 18 19
M  V30 19 2 19 20
M  V30 20 1 14 21
M  V30 21 2 21 22
M  V30 22 1 22 23
M  V30 23 2 23 24
M  V30 24 1 24 25
M  V30 25 2 25 26
M  V30 26 1 26 27
M  V30 27 2 27 28
M  V30 28 1 4 29
M  V30 29 2 29 30
M  V30 30 1 30 1
M  V30 31 1 22 5
M  V30 32 1 28 23
M  V30 33 1 13 8
M  V30 34 1 20 15
M  V30 35 1 2 31
M  V30 36 1 3 32
M  V30 37 1 6 33
M  V30 38 1 9 34
M  V30 39 1 10 35
M  V30 40 1 12 36
M  V30 41 1 13 37
M  V30 42 1 16 38
M  V30 43 1 17 39
M  V30 44 1 19 40
M  V30 45 1 20 41
M  V30 46 1 21 42
M  V30 47 1 24 43
M  V30 48 1 25 44
M  V30 49 1 27 45
M  V30 50 1 28 46
M  V30 51 1 29 47
M  V30 52 1 30 48
M  V30 53 1 50 60
M  V30 54 2 50 57
M  V30 55 1 51 50
M  V30 56 2 52 51
M  V30 57 1 52 54
M  V30 58 1 53 51
M  V30 59 2 54 56
M  V30 60 1 55 52
M  V30 61 1 56 57
M  V30 62 1 56 58
M  V30 63 1 57 59
M  V30 64 2 61 55
M  V30 65 1 62 55
M  V30 66 1 63 73
M  V30 67 2 63 70
M  V30 68 1 64 63
M  V30 69 2 65 64
M  V30 70 1 65 67
M  V30 71 1 66 64
M  V30 72 2 67 69
M  V30 73 1 68 65
M  V30 74 1 69 70
M  V30 75 1 69 71
M  V30 76 1 70 72
M  V30 77 2 74 68
M  V30 78 1 75 68
M  V30 79 1 76 74
M  V30 80 1 77 87
M  V30 81 2 77 84
M  V30 82 1 78 77
M  V30 83 2 79 78
M  V30 84 1 79 81
M  V30 85 1 80 78
M  V30 86 2 81 83
M  V30 87 1 82 79
M  V30 88 1 83 84
M  V30 89 1 83 85
M  V30 90 1 84 86
M  V30 91 2 88 82
M  V30 92 1 89 82
M  V30 93 1 90 88
M  V30 94 9 61 49
M  V30 95 9 54 49
M  V30 96 9 74 49
M  V30 97 9 67 49
M  V30 98 9 88 49
M  V30 99 9 81 49
M  V30 100 1 92 102
M  V30 101 2 92 99
M  V30 102 1 93 92
M  V30 103 2 94 93
M  V30 104 1 94 96
M  V30 105 1 95 93
M  V30 106 2 96 98
M  V30 107 1 97 94
M  V30 108 1 98 99
M  V30 109 1 98 100
M  V30 110 1 99 101
M  V30 111 2 103 97
M  V30 112 1 104 97
M  V30 113 1 105 115
M  V30 114 2 105 112
M  V30 115 1 106 105
M  V30 116 2 107 106
M  V30 117 1 107 109
M  V30 118 1 108 106
M  V30 119 2 109 111
M  V30 120 1 110 107
M  V30 121 1 111 112
M  V30 122 1 111 113
M  V30 123 1 112 114
M  V30 124 2 116 110
M  V30 125 1 117 110
M  V30 126 1 118 116
M  V30 127 1 119 129
M  V30 128 2 119 126
M  V30 129 1 120 119
M  V30 130 2 121 120
M  V30 131 1 121 123
M  V30 132 1 122 120
M  V30 133 2 123 125
M  V30 134 1 124 121
M  V30 135 1 125 126
M  V30 136 1 125 127
M  V30 137 1 126 128
M  V30 138 2 130 124
M  V30 139 1 131 124
M  V30 140 1 132 130
M  V30 141 9 103 91
M  V30 142 9 96 91
M  V30 143 9 116 91
M  V30 144 9 109 91
M  V30 145 9 130 91
M  V30 146 9 123 91
M  V30 147 1 134 144
M  V30 148 2 134 141
M  V30 149 1 135 134
M  V30 150 2 136 135
M  V30 151 1 136 138
M  V30 152 1 137 135
M  V30 153 2 138 140
M  V30 154 1 139 136
M  V30 155 1 140 141
M  V30 156 1 140 142
M  V30 157 1 141 143
M  V30 158 2 145 139
M  V30 159 1 146 139
M  V30 160 1 147 157
M  V30 161 2 147 154
M  V30 162 1 148 147
M  V30 163 2 149 148
M  V30 164 1 149 151
M  V30 165 1 150 148
M  V30 166 2 151 153
M  V30 167 1 152 149
M  V30 168 1 153 154
M  V30 169 1 153 155
M  V30 170 1 154 156
M  V30 171 2 158 152
M  V30 172 1 159 152
M  V30 173 1 160 158
M  V30 174 1 161 171
M  V30 175 2 161 168
M  V30 176 1 162 161
M  V30 177 2 163 162
M  V30 178 1 163 165
M  V30 179 1 164 162
M  V30 180 2 165 167
M  V30 181 1 166 163
M  V30 182 1 167 168
M  V30 183 1 167 169
M  V30 184 1 168 170
M  V30 185 2 172 166
M  V30 186 1 173 166
M  V30 187 1 174 172
M  V30 188 9 145 133
M  V30 189 9 138 133
M  V30 190 9 172 133
M  V30 191 9 165 133
M  V30 192 9 158 133
M  V30 193 9 151 133
M  V30 194 1 176 186
M  V30 195 2 176 183
M  V30 196 1 177 176
M  V30 197 2 178 177
M  V30 198 1 178 180
M  V30 199 1 179 177
M  V30 200 2 180 182
M  V30 201 1 181 178
M  V30 202 1 182 183
M  V30 203 1 182 184
M  V30 204 1 183 185
M  V30 205 2 187 181
M  V30 206 1 188 181
M  V30 207 1 189 199
M  V30 208 2 189 196
M  V30 209 1 190 189
M  V30 210 2 191 190
M  V30 211 1 191 193
M  V30 212 1 192 190
M  V30 213 2 193 195
M  V30 214 1 194 191
M  V30 215 1 195 196
M  V30 216 1 195 197
M  V30 217 1 196 198
M  V30 218 2 200 194
M  V30 219 1 201 194
M  V30 220 1 202 200
M  V30 221 1 203 213
M  V30 222 2 203 210
M  V30 223 1 204 203
M  V30 224 2 205 204
M  V30 225 1 205 207
M  V30 226 1 206 204
M  V30 227 2 207 209
M  V30 228 1 208 205
M  V30 229 1 209 210
M  V30 230 1 209 211
M  V30 231 1 210 212
M  V30 232 2 214 208
M  V30 233 1 215 208
M  V30 234 1 216 214
M  V30 235 9 187 175
M  V30 236 9 180 175
M  V30 237 9 214 175
M  V30 238 9 207 175
M  V30 239 9 200 175
M  V30 240 9 193 175
M  V30 241 1 11 61
M  V30 242 1 18 145
M  V30 243 1 26 103
M  V30 244 1 1 187
M  V30 END BOND
M  V30 END CTAB
M  END

$$$$
