
     RDKit          3D

  0  0  0  0  0  0  0  0  0  0999 V3000
M  V30 BEGIN CTAB
M  V30 COUNTS 216 244 0 0 0
M  V30 BEGIN ATOM
M  V30 1 C -4.2460 2.7584 -0.3636 0
M  V30 2 C -3.2581 3.0267 -1.3179 0
M  V30 3 C -2.1295 2.2378 -1.4142 0
M  V30 4 C -1.9303 1.1460 -0.5663 0
M  V30 5 C -0.6446 0.4144 -0.5805 0
M  V30 6 C 0.5348 1.1592 -0.5760 0
M  V30 7 C 1.8035 0.5874 -0.5055 0
M  V30 8 C 2.9861 1.4661 -0.6446 0
M  V30 9 C 3.1041 2.6618 0.0676 0
M  V30 10 C 4.1759 3.5138 -0.1260 0
M  V30 11 C 5.1803 3.2015 -1.0435 0
M  V30 12 C 5.0607 2.0085 -1.7656 0
M  V30 13 C 3.9873 1.1617 -1.5681 0
M  V30 14 C 1.8999 -0.8116 -0.3834 0
M  V30 15 C 3.1811 -1.5091 -0.1357 0
M  V30 16 C 3.5117 -2.6974 -0.7927 0
M  V30 17 C 4.6807 -3.3780 -0.5067 0
M  V30 18 C 5.5810 -2.8872 0.4412 0
M  V30 19 C 5.2453 -1.7078 1.1152 0
M  V30 20 C 4.0702 -1.0382 0.8325 0
M  V30 21 C 0.7238 -1.5580 -0.4339 0
M  V30 22 C -0.5428 -0.9876 -0.5533 0
M  V30 23 C -1.7145 -1.8718 -0.7157 0
M  V30 24 C -1.8673 -3.0252 0.0542 0
M  V30 25 C -2.9256 -3.8926 -0.1506 0
M  V30 26 C -3.8854 -3.6200 -1.1249 0
M  V30 27 C -3.7541 -2.4546 -1.8821 0
M  V30 28 C -2.6797 -1.6091 -1.6920 0
M  V30 29 C -2.9551 0.8370 0.3327 0
M  V30 30 C -4.0937 1.6186 0.4280 0
M  V30 31 H -3.3852 3.8520 -2.0027 0
M  V30 32 H -1.3882 2.4724 -2.1630 0
M  V30 33 H 0.4631 2.2359 -0.6312 0
M  V30 34 H 2.3542 2.9198 0.8010 0
M  V30 35 H 4.2605 4.4179 0.4571 0
M  V30 36 H 5.7913 1.7648 -2.5226 0
M  V30 37 H 3.9112 0.2613 -2.1587 0
M  V30 38 H 2.8539 -3.0836 -1.5571 0
M  V30 39 H 4.9267 -4.2831 -1.0407 0
M  V30 40 H 5.8891 -1.3352 1.8984 0
M  V30 41 H 3.8286 -0.1442 1.3877 0
M  V30 42 H 0.7990 -2.6346 -0.3858 0
M  V30 43 H -1.1509 -3.2479 0.8307 0
M  V30 44 H -3.0248 -4.7765 0.4628 0
M  V30 45 H -4.4777 -2.2480 -2.6563 0
M  V30 46 H -2.5702 -0.7447 -2.3286 0
M  V30 47 H -2.8330 -0.0065 0.9969 0
M  V30 48 H -4.8489 1.3936 1.1677 0
M  V30 49 Zn 6.4228 6.2711 -1.5587 0 CHG=2
M  V30 50 C 10.9666 4.6303 -1.9928 0
M  V30 51 C 9.8646 3.8159 -1.7723 0
M  V30 52 C 8.6075 4.3990 -1.6096 0
M  V30 53 H 9.9748 2.7433 -1.7337 0
M  V30 54 N 8.4329 5.7293 -1.6580 0
M  V30 55 C 7.4352 3.5794 -1.3732 0
M  V30 56 C 9.4894 6.5032 -1.8581 0
M  V30 57 C 10.7757 6.0029 -2.0313 0
M  V30 58 H 9.3104 7.5686 -1.8780 0
M  V30 59 H 11.6030 6.6756 -2.1928 0
M  V30 60 H 11.9494 4.2060 -2.1297 0
M  V30 61 N 6.2642 4.0709 -1.2262 0
M  V30 62 H 7.6146 2.5048 -1.3062 0
M  V30 63 C 6.2135 7.7330 3.1320 0
M  V30 64 C 5.1384 7.7527 2.2519 0
M  V30 65 C 5.3198 7.2743 0.9566 0
M  V30 66 H 4.1791 8.1370 2.5625 0
M  V30 67 N 6.4972 6.7919 0.5260 0
M  V30 68 C 4.2323 7.2744 -0.0130 0
M  V30 69 C 7.5175 6.7789 1.3672 0
M  V30 70 C 7.4255 7.2367 2.6798 0
M  V30 71 H 8.4531 6.3938 0.9868 0
M  V30 72 H 8.2894 7.2098 3.3249 0
M  V30 73 H 6.1066 8.1013 4.1408 0
M  V30 74 N 4.4138 6.7721 -1.1624 0
M  V30 75 H 3.2899 7.7150 0.3137 0
M  V30 76 H 3.6232 6.8109 -1.7979 0
M  V30 77 C 7.0428 10.7020 -3.6295 0
M  V30 78 C 6.7636 9.5319 -4.3257 0
M  V30 79 C 6.6223 8.3421 -3.6152 0
M  V30 80 H 6.6564 9.5424 -5.3996 0
M  V30 81 N 6.7482 8.2799 -2.2773 0
M  V30 82 C 6.3264 7.0912 -4.2957 0
M  V30 83 C 7.0214 9.3976 -1.6232 0
M  V30 84 C 7.1762 10.6310 -2.2519 0
M  V30 85 H 7.1288 9.3156 -0.5501 0
M  V30 86 H 7.3998 11.5110 -1.6697 0
M  V30 87 H 7.1558 11.6402 -4.1511 0
M  V30 88 N 6.1476 6.0263 -3.6256 0
M  V30 89 H 6.2685 7.1322 -5.3829 0
M  V30 90 H 5.9489 5.1982 -4.1791 0
M  V30 91 Zn -7.5172 3.4393 0.0506 0 CHG=2
M  V30 92 C -6.7636 8.2114 0.0572 0
M  V30 93 C -5.7668 7.2587 -0.1021 0
M  V30 94 C -6.1038 5.9053 -0.0571 0
M  V30 95 H -4.7426 7.5580 -0.2618 0
M  V30 96 N -7.3684 5.4956 0.1373 0
M  V30 97 C -5.0851 4.8873 -0.2069 0
M  V30 98 C -8.3150 6.4098 0.2980 0
M  V30 99 C -8.0639 7.7771 0.2662 0
M  V30 100 H -9.3173 6.0430 0.4662 0
M  V30 101 H -8.8705 8.4799 0.4033 0
M  V30 102 H -6.5323 9.2649 0.0227 0
M  V30 103 N -5.3325 3.6303 -0.1743 0
M  V30 104 H -4.0667 5.2578 -0.3286 0
M  V30 105 C -7.7633 2.5757 4.9025 0
M  V30 106 C -7.8570 1.5922 3.9252 0
M  V30 107 C -7.7282 1.9568 2.5865 0
M  V30 108 H -8.0354 0.5628 4.1965 0
M  V30 109 N -7.5129 3.2267 2.2038 0
M  V30 110 C -7.8380 0.9771 1.5186 0
M  V30 111 C -7.4245 4.1575 3.1377 0
M  V30 112 C -7.5427 3.8829 4.4999 0
M  V30 113 H -7.2590 5.1702 2.7994 0
M  V30 114 H -7.4711 4.6811 5.2218 0
M  V30 115 H -7.8666 2.3272 5.9478 0
M  V30 116 N -7.6591 1.3265 0.3125 0
M  V30 117 H -8.0781 -0.0450 1.8197 0
M  V30 118 H -7.7791 0.6013 -0.3871 0
M  V30 119 C -12.3874 3.7388 -0.8174 0
M  V30 120 C -11.4019 3.7427 -1.7977 0
M  V30 121 C -10.0688 3.6087 -1.4144 0
M  V30 122 H -11.6628 3.8523 -2.8393 0
M  V30 123 N -9.6960 3.4770 -0.1287 0
M  V30 124 C -8.9990 3.6062 -2.4006 0
M  V30 125 C -10.6409 3.4771 0.7980 0
M  V30 126 C -11.9974 3.6021 0.5057 0
M  V30 127 H -10.3114 3.3804 1.8235 0
M  V30 128 H -12.7256 3.6007 1.3014 0
M  V30 129 H -13.4288 3.8451 -1.0815 0
M  V30 130 N -7.7949 3.4308 -2.0347 0
M  V30 131 H -9.2955 3.7539 -3.4386 0
M  V30 132 H -7.1105 3.4509 -2.7854 0
M  V30 133 Zn 7.2752 -5.7460 0.9147 0 CHG=2
M  V30 134 C 11.5040 -3.4319 1.4779 0
M  V30 135 C 10.2919 -2.7884 1.2714 0
M  V30 136 C 9.1367 -3.5504 1.0935 0
M  V30 137 H 10.2395 -1.7108 1.2520 0
M  V30 138 N 9.1647 -4.8921 1.1170 0
M  V30 139 C 7.8560 -2.9115 0.8601 0
M  V30 140 C 10.3246 -5.5027 1.3093 0
M  V30 141 C 11.5213 -4.8182 1.4944 0
M  V30 142 H 10.3049 -6.5830 1.3221 0
M  V30 143 H 12.4399 -5.3616 1.6492 0
M  V30 144 H 12.4124 -2.8675 1.6220 0
M  V30 145 N 6.7785 -3.5737 0.6769 0
M  V30 146 H 7.8719 -1.8209 0.8147 0
M  V30 147 C 6.2595 -5.8680 5.7533 0
M  V30 148 C 5.3552 -6.1799 4.7459 0
M  V30 149 C 5.7652 -6.0855 3.4180 0
M  V30 150 H 4.3527 -6.4992 4.9855 0
M  V30 151 N 7.0026 -5.6949 3.0729 0
M  V30 152 C 4.8711 -6.4333 2.3231 0
M  V30 153 C 7.8599 -5.4041 4.0374 0
M  V30 154 C 7.5380 -5.4762 5.3906 0
M  V30 155 H 8.8533 -5.1082 3.7318 0
M  V30 156 H 8.2790 -5.2374 6.1369 0
M  V30 157 H 5.9753 -5.9382 6.7920 0
M  V30 158 N 5.2607 -6.3170 1.1226 0
M  V30 159 H 3.8823 -6.7972 2.6034 0
M  V30 160 H 4.5944 -6.6024 0.4116 0
M  V30 161 C 8.7270 -10.4014 0.2877 0
M  V30 162 C 8.5304 -9.4863 -0.7401 0
M  V30 163 C 8.1262 -8.1922 -0.4214 0
M  V30 164 H 8.6862 -9.7720 -1.7692 0
M  V30 165 N 7.9213 -7.7895 0.8462 0
M  V30 166 C 7.9042 -7.1961 -1.4573 0
M  V30 167 C 8.1177 -8.6652 1.8190 0
M  V30 168 C 8.5180 -9.9801 1.5912 0
M  V30 169 H 7.9570 -8.3111 2.8279 0
M  V30 170 H 8.6647 -10.6524 2.4218 0
M  V30 171 H 9.0381 -11.4125 0.0733 0
M  V30 172 N 7.4659 -6.0437 -1.1488 0
M  V30 173 H 8.1291 -7.4986 -2.4794 0
M  V30 174 H 7.3508 -5.4046 -1.9300 0
M  V30 175 Zn -7.0977 -4.0286 -1.0907 0 CHG=2
M  V30 176 C -6.9194 -8.7207 -2.2906 0
M  V30 177 C -5.7992 -7.9217 -2.0987 0
M  V30 178 C -5.9710 -6.5892 -1.7268 0
M  V30 179 H -4.8083 -8.3231 -2.2443 0
M  V30 180 N -7.1912 -6.0529 -1.5438 0
M  V30 181 C -4.8319 -5.7104 -1.5328 0
M  V30 182 C -8.2559 -6.8230 -1.7223 0
M  V30 183 C -8.1726 -8.1602 -2.0950 0
M  V30 184 H -9.2196 -6.3603 -1.5586 0
M  V30 185 H -9.0703 -8.7434 -2.2273 0
M  V30 186 H -6.8165 -9.7541 -2.5847 0
M  V30 187 N -4.9892 -4.4591 -1.3343 0
M  V30 188 H -3.8431 -6.1644 -1.5975 0
M  V30 189 C -6.1292 -4.7095 3.6882 0
M  V30 190 C -5.8044 -3.5592 2.9798 0
M  V30 191 C -6.2211 -3.4426 1.6557 0
M  V30 192 H -5.2425 -2.7644 3.4461 0
M  V30 193 N -6.9069 -4.4139 1.0320 0
M  V30 194 C -5.9479 -2.2479 0.8724 0
M  V30 195 C -7.2181 -5.5045 1.7117 0
M  V30 196 C -6.8595 -5.6961 3.0451 0
M  V30 197 H -7.7811 -6.2606 1.1828 0
M  V30 198 H -7.1473 -6.5994 3.5596 0
M  V30 199 H -5.8252 -4.8289 4.7169 0
M  V30 200 N -6.4317 -2.1272 -0.2935 0
M  V30 201 H -5.3294 -1.4842 1.3487 0
M  V30 202 H -6.1747 -1.2798 -0.7907 0
M  V30 203 C -11.9071 -3.1724 -1.4589 0
M  V30 204 C -11.0146 -3.1399 -2.5243 0
M  V30 205 C -9.6610 -3.3552 -2.2756 0
M  V30 206 H -11.3634 -2.9587 -3.5294 0
M  V30 207 N -9.1842 -3.5968 -1.0413 0
M  V30 208 C -8.6778 -3.3333 -3.3518 0
M  V30 209 C -10.0408 -3.6286 -0.0325 0
M  V30 210 C -11.4085 -3.4186 -0.1891 0
M  V30 211 H -9.6262 -3.8364 0.9442 0
M  V30 212 H -12.0651 -3.4619 0.6656 0
M  V30 213 H -12.9632 -3.0179 -1.6202 0
M  V30 214 N -7.4448 -3.4575 -3.0763 0
M  V30 215 H -9.0607 -3.2023 -4.3632 0
M  V30 216 H -6.8188 -3.4511 -3.8770 0
M  V30 END ATOM
M  V30 BEGIN BOND
M  V30 1 2 1 2
M  V30 2 1 2 3
M  V30 3 2 3 4
M  V30 4 1 4 5
M  V30 5 2 5 6
M  V30 6 1 6 7
M  V30 7 1 7 8
M  V30 8 2 8 9
M  V30 9 1 9 10
M  V30 10 2 10 11
M  V30 11 1 11 12
M  V30 12 2 12 13
M  V30 13 2 7 14
M  V30 14 1 14 15
M  V30 15 2 15 16
M  V30 16 1 16 17
M  V30 17 2 17 18
M  V30 18 1 18 19
M  V30 19 2 19 20
M  V30 20 1 14 21
M  V30 21 2 21 22
M  V30 22 1 22 23
M  V30 23 2 23 24
M  V30 24 1 24 25
M  V30 25 2 25 26
M  V30 26 1 26 27
M  V30 27 2 27 28
M  V30 28 1 4 29
M  V30 29 2 29 30
M  V30 30 1 30 1
M  V30 31 1 22 5
M  V30 32 1 28 23
M  V30 33 1 13 8
M  V30 34 1 20 15
M  V30 35 1 2 31
M  V30 36 1 3 32
M  V30 37 1 6 33
M  V30 38 1 9 34
M  V30 39 1 10 35
M  V30 40 1 12 36
M  V30 41 1 13 37
M  V30 42 1 16 38
M  V30 43 1 17 39
M  V30 44 1 19 40
M  V30 45 1 20 41
M  V30 46 1 21 42
M  V30 47 1 24 43
M  V30 48 1 25 44
M  V30 49 1 27 45
M  V30 50 1 28 46
M  V30 51 1 29 47
M  V30 52 1 30 48
M  V30 53 1 50 60
M  V30 54 2 50 57
M  V30 55 1 51 50
M  V30 56 2 52 51
M  V30 57 1 52 54
M  V30 58 1 53 51
M  V30 59 2 54 56
M  V30 60 1 55 52
M  V30 61 1 56 57
M  V30 62 1 56 58
M  V30 63 1 57 59
M  V30 64 2 61 55
M  V30 65 1 62 55
M  V30 66 1 63 73
M  V30 67 2 63 70
M  V30 68 1 64 63
M  V30 69 2 65 64
M  V30 70 1 65 67
M  V30 71 1 66 64
M  V30 72 2 67 69
M  V30 73 1 68 65
M  V30 74 1 69 70
M  V30 75 1 69 71
M  V30 76 1 70 72
M  V30 77 2 74 68
M  V30 78 1 75 68
M  V30 79 1 76 74
M  V30 80 1 77 87
M  V30 81 2 77 84
M  V30 82 1 78 77
M  V30 83 2 79 78
M  V30 84 1 79 81
M  V30 85 1 80 78
M  V30 86 2 81 83
M  V30 87 1 82 79
M  V30 88 1 83 84
M  V30 89 1 83 85
M  V30 90 1 84 86
M  V30 91 2 88 82
M  V30 92 1 89 82
M  V30 93 1 90 88
M  V30 94 9 61 49
M  V30 95 9 54 49
M  V30 96 9 74 49
M  V30 97 9 67 49
M  V30 98 9 88 49
M  V30 99 9 81 49
M  V30 100 1 92 102
M  V30 101 2 92 99
M  V30 102 1 93 92
M  V30 103 2 94 93
M  V30 104 1 94 96
M  V30 105 1 95 93
M  V30 106 2 96 98
M  V30 107 1 97 94
M  V30 108 1 98 99
M  V30 109 1 98 100
M  V30 110 1 99 101
M  V30 111 2 103 97
M  V30 112 1 104 97
M  V30 113 1 105 115
M  V30 114 2 105 112
M  V30 115 1 106 105
M  V30 116 2 107 106
M  V30 117 1 107 109
M  V30 118 1 108 106
M  V30 119 2 109 111
M  V30 120 1 110 107
M  V30 121 1 111 112
M  V30 122 1 111 113
M  V30 123 1 112 114
M  V30 124 2 116 110
M  V30 125 1 117 110
M  V30 126 1 118 116
M  V30 127 1 119 129
M  V30 128 2 119 126
M  V30 129 1 120 119
M  V30 130 2 121 120
M  V30 131 1 121 123
M  V30 132 1 122 120
M  V30 133 2 123 125
M  V30 134 1 124 121
M  V30 135 1 125 126
M  V30 136 1 125 127
M  V30 137 1 126 128
M  V30 138 2 130 124
M  V30 139 1 131 124
M  V30 140 1 132 130
M  V30 141 9 103 91
M  V30 142 9 96 91
M  V30 143 9 116 91
M  V30 144 9 109 91
M  V30 145 9 130 91
M  V30 146 9 123 91
M  V30 147 1 134 144
M  V30 148 2 134 141
M  V30 149 1 135 134
M  V30 150 2 136 135
M  V30 151 1 136 138
M  V30 152 1 137 135
M  V30 153 2 138 140
M  V30 154 1 139 136
M  V30 155 1 140 141
M  V30 156 1 140 142
M  V30 157 1 141 143
M  V30 158 2 145 139
M  V30 159 1 146 139
M  V30 160 1 147 157
M  V30 161 2 147 154
M  V30 162 1 148 147
M  V30 163 2 149 148
M  V30 164 1 149 151
M  V30 165 1 150 148
M  V30 166 2 151 153
M  V30 167 1 152 149
M  V30 168 1 153 154
M  V30 169 1 153 155
M  V30 170 1 154 156
M  V30 171 2 158 152
M  V30 172 1 159 152
M  V30 173 1 160 158
M  V30 174 1 161 171
M  V30 175 2 161 168
M  V30 176 1 162 161
M  V30 177 2 163 162
M  V30 178 1 163 165
M  V30 179 1 164 162
M  V30 180 2 165 167
M  V30 181 1 166 163
M  V30 182 1 167 168
M  V30 183 1 167 169
M  V30 184 1 168 170
M  V30 185 2 172 166
M  V30 186 1 173 166
M  V30 187 1 174 172
M  V30 188 9 145 133
M  V30 189 9 138 133
M  V30 190 9 172 133
M  V30 191 9 165 133
M  V30 192 9 158 133
M  V30 193 9 151 133
M  V30 194 1 176 186
M  V30 195 2 176 183
M  V30 196 1 177 176
M  V30 197 2 178 177
M  V30 198 1 178 180
M  V30 199 1 179 177
M  V30 200 2 180 182
M  V30 201 1 181 178
M  V30 202 1 182 183
M  V30 203 1 182 184
M  V30 204 1 183 185
M  V30 205 2 187 181
M  V30 206 1 188 181
M  V30 207 1 189 199
M  V30 208 2 189 196
M  V30 209 1 190 189
M  V30 210 2 191 190
M  V30 211 1 191 193
M  V30 212 1 192 190
M  V30 213 2 193 195
M  V30 214 1 194 191
M  V30 215 1 195 196
M  V30 216 1 195 197
M  V30 217 1 196 198
M  V30 218 2 200 194
M  V30 219 1 201 194
M  V30 220 1 202 200
M  V30 221 1 203 213
M  V30 222 2 203 210
M  V30 223 1 204 203
M  V30 224 2 205 204
M  V30 225 1 205 207
M  V30 226 1 206 204
M  V30 227 2 207 209
M  V30 228 1 208 205
M  V30 229 1 209 210
M  V30 230 1 209 211
M  V30 231 1 210 212
M  V30 232 2 214 208
M  V30 233 1 215 208
M  V30 234 1 216 214
M  V30 235 9 187 175
M  V30 236 9 180 175
M  V30 237 9 214 175
M  V30 238 9 207 175
M  V30 239 9 200 175
M  V30 240 9 193 175
M  V30 241 1 11 61
M  V30 242 1 18 145
M  V30 243 1 26 187
M  V30 244 1 1 103
M  V30 END BOND
M  V30 END CTAB
M  END

$$$$
