
     RDKit          3D

  0  0  0  0  0  0  0  0  0  0999 V3000
M  V30 BEGIN CTAB
M  V30 COUNTS 220 248 0 0 0
M  V30 BEGIN ATOM
M  V30 1 C 6.1048 3.6756 -0.4893 0
M  V30 2 C 6.5268 2.5788 -1.2530 0
M  V30 3 C 5.8306 1.3880 -1.2438 0
M  V30 4 C 4.6802 1.2277 -0.4639 0
M  V30 5 N 3.9806 0.0079 -0.4497 0
M  V30 6 C 4.6992 -1.1981 -0.4929 0
M  V30 7 C 5.9274 -1.3281 0.1657 0
M  V30 8 C 6.6495 -2.5026 0.1099 0
M  V30 9 C 6.1733 -3.6137 -0.5982 0
M  V30 10 C 4.9325 -3.4920 -1.2319 0
M  V30 11 C 4.2176 -2.3124 -1.1905 0
M  V30 12 C 2.5765 -0.0003 -0.4020 0
M  V30 13 C 1.8769 -0.9985 0.2840 0
M  V30 14 C 0.4961 -1.0048 0.3315 0
M  V30 15 C -0.2544 -0.0144 -0.3064 0
M  V30 16 N -1.6674 -0.0214 -0.2555 0
M  V30 17 C -2.3746 -1.2280 -0.2804 0
M  V30 18 C -1.9507 -2.3144 -1.0535 0
M  V30 19 C -2.6721 -3.4890 -1.0838 0
M  V30 20 C -3.8572 -3.6397 -0.3478 0
M  V30 21 C -4.2835 -2.5495 0.4174 0
M  V30 22 C -3.5559 -1.3803 0.4598 0
M  V30 23 C -2.3845 1.1770 -0.1912 0
M  V30 24 C -3.6229 1.3022 -0.8378 0
M  V30 25 C -4.3556 2.4655 -0.7612 0
M  V30 26 C -3.8762 3.5780 -0.0613 0
M  V30 27 C -2.6372 3.4551 0.5828 0
M  V30 28 C -1.9126 2.2826 0.5253 0
M  V30 29 C 0.4415 0.9822 -0.9946 0
M  V30 30 C 1.8224 0.9901 -1.0397 0
M  V30 31 C 4.2541 2.3237 0.2944 0
M  V30 32 C 4.9456 3.5188 0.2759 0
M  V30 33 H 7.3871 2.6740 -1.8983 0
M  V30 34 H 6.1754 0.5708 -1.8588 0
M  V30 35 H 6.3163 -0.4975 0.7350 0
M  V30 36 H 7.5765 -2.5714 0.6588 0
M  V30 37 H 4.5607 -4.3256 -1.8081 0
M  V30 38 H 3.2823 -2.2383 -1.7249 0
M  V30 39 H 2.4263 -1.7687 0.8041 0
M  V30 40 H -0.0093 -1.7799 0.8882 0
M  V30 41 H -1.0584 -2.2207 -1.6537 0
M  V30 42 H -2.3416 -4.2847 -1.7346 0
M  V30 43 H -5.1744 -2.6519 1.0170 0
M  V30 44 H -3.8918 -0.5676 1.0865 0
M  V30 45 H -3.9976 0.4756 -1.4223 0
M  V30 46 H -5.2915 2.5506 -1.2913 0
M  V30 47 H -2.2627 4.2729 1.1804 0
M  V30 48 H -0.9745 2.2089 1.0544 0
M  V30 49 H -0.1069 1.7499 -1.5197 0
M  V30 50 H 2.3271 1.7645 -1.5971 0
M  V30 51 H 3.3803 2.2254 0.9214 0
M  V30 52 H 4.6175 4.3339 0.9018 0
M  V30 53 Zn 6.1672 6.9998 -0.6578 0 CHG=2
M  V30 54 C 10.9785 7.2422 -0.6502 0
M  V30 55 C 10.2594 6.0556 -0.6032 0
M  V30 56 C 8.8646 6.1039 -0.5736 0
M  V30 57 H 10.7721 5.1064 -0.5927 0
M  V30 58 N 8.1987 7.2715 -0.5873 0
M  V30 59 C 8.0782 4.8873 -0.5197 0
M  V30 60 C 8.8908 8.4019 -0.6216 0
M  V30 61 C 10.2797 8.4404 -0.6548 0
M  V30 62 H 8.3172 9.3181 -0.6183 0
M  V30 63 H 10.7959 9.3869 -0.6834 0
M  V30 64 H 12.0572 7.2332 -0.6802 0
M  V30 65 N 6.7961 4.8928 -0.4860 0
M  V30 66 H 8.6470 3.9580 -0.4855 0
M  V30 67 C 5.1403 7.7896 4.0984 0
M  V30 68 C 4.1931 7.4774 3.1312 0
M  V30 69 C 4.6135 7.2636 1.8208 0
M  V30 70 H 3.1474 7.4037 3.3877 0
M  V30 71 N 5.9036 7.3431 1.4578 0
M  V30 72 C 3.6681 6.9431 0.7615 0
M  V30 73 C 6.8000 7.6458 2.3806 0
M  V30 74 C 6.4684 7.8786 3.7144 0
M  V30 75 H 7.8281 7.7132 2.0549 0
M  V30 76 H 7.2373 8.1274 4.4286 0
M  V30 77 H 4.8469 7.9633 5.1223 0
M  V30 78 N 4.0873 6.6933 -0.4077 0
M  V30 79 H 2.6134 6.9289 1.0420 0
M  V30 80 H 3.3830 6.4817 -1.1066 0
M  V30 81 C 5.1456 11.5386 -2.3695 0
M  V30 82 C 5.3992 10.4277 -3.1648 0
M  V30 83 C 5.6749 9.2080 -2.5505 0
M  V30 84 H 5.3847 10.5063 -4.2410 0
M  V30 85 N 5.7055 9.0627 -1.2145 0
M  V30 86 C 5.9492 8.0145 -3.3380 0
M  V30 87 C 5.4718 10.1278 -0.4649 0
M  V30 88 C 5.1859 11.3845 -0.9928 0
M  V30 89 H 5.5183 9.9839 0.6060 0
M  V30 90 H 5.0073 12.2206 -0.3354 0
M  V30 91 H 4.9292 12.4976 -2.8150 0
M  V30 92 N 6.1258 6.8977 -2.7604 0
M  V30 93 H 5.9878 8.1453 -4.4190 0
M  V30 94 H 6.3229 6.1175 -3.3805 0
M  V30 95 Zn -6.8152 5.0898 0.1327 0 CHG=2
M  V30 96 C -4.9029 9.5271 -0.2152 0
M  V30 97 C -4.1537 8.3603 -0.1970 0
M  V30 98 C -4.8065 7.1308 -0.0909 0
M  V30 99 H -3.0778 8.3971 -0.2669 0
M  V30 100 N -6.1444 7.0482 -0.0078 0
M  V30 101 C -4.0595 5.8906 -0.0859 0
M  V30 102 C -6.8562 8.1663 -0.0275 0
M  V30 103 C -6.2838 9.4287 -0.1280 0
M  V30 104 H -7.9288 8.0564 0.0452 0
M  V30 105 H -6.9068 10.3087 -0.1371 0
M  V30 106 H -4.4243 10.4908 -0.2959 0
M  V30 107 N -4.6353 4.7461 -0.0456 0
M  V30 108 H -2.9759 5.9846 -0.1627 0
M  V30 109 C -6.8241 4.8762 5.0745 0
M  V30 110 C -7.0438 3.7885 4.2388 0
M  V30 111 C -7.0104 3.9803 2.8595 0
M  V30 112 H -7.2460 2.8116 4.6501 0
M  V30 113 N -6.7604 5.1767 2.3043 0
M  V30 114 C -7.2770 2.8885 1.9366 0
M  V30 115 C -6.5572 6.2088 3.1052 0
M  V30 116 C -6.5819 6.1111 4.4950 0
M  V30 117 H -6.3753 7.1624 2.6305 0
M  V30 118 H -6.4223 6.9877 5.1025 0
M  V30 119 H -6.8511 4.7625 6.1473 0
M  V30 120 N -7.2258 3.0852 0.6859 0
M  V30 121 H -7.5279 1.9275 2.3877 0
M  V30 122 H -7.4495 2.2888 0.0985 0
M  V30 123 C -11.5516 6.1246 -0.7018 0
M  V30 124 C -10.6166 5.8386 -1.6900 0
M  V30 125 C -9.3077 5.5460 -1.3144 0
M  V30 126 H -10.8979 5.8428 -2.7320 0
M  V30 127 N -8.9093 5.5346 -0.0292 0
M  V30 128 C -8.2909 5.2330 -2.3066 0
M  V30 129 C -9.8052 5.8112 0.9049 0
M  V30 130 C -11.1361 6.1088 0.6203 0
M  V30 131 H -9.4550 5.8027 1.9278 0
M  V30 132 H -11.8248 6.3283 1.4208 0
M  V30 133 H -12.5737 6.3559 -0.9604 0
M  V30 134 N -7.1224 4.9007 -1.9343 0
M  V30 135 H -8.5939 5.2954 -3.3512 0
M  V30 136 H -6.4676 4.7095 -2.6873 0
M  V30 137 Zn 6.2222 -6.9183 -0.6363 0 CHG=2
M  V30 138 C 11.0128 -7.1987 -1.1463 0
M  V30 139 C 10.3130 -6.0046 -1.0382 0
M  V30 140 C 8.9252 -6.0381 -0.8911 0
M  V30 141 H 10.8353 -5.0611 -1.0688 0
M  V30 142 N 8.2480 -7.1985 -0.8537 0
M  V30 143 C 8.1555 -4.8136 -0.7857 0
M  V30 144 C 8.9214 -8.3360 -0.9576 0
M  V30 145 C 10.3024 -8.3894 -1.1039 0
M  V30 146 H 8.3388 -9.2458 -0.9180 0
M  V30 147 H 10.8036 -9.3412 -1.1819 0
M  V30 148 H 12.0860 -7.2013 -1.2606 0
M  V30 149 N 6.8768 -4.8172 -0.6941 0
M  V30 150 H 8.7278 -3.8870 -0.8260 0
M  V30 151 C 6.1773 -7.1494 4.3035 0
M  V30 152 C 5.0948 -6.7633 3.5232 0
M  V30 153 C 5.2320 -6.7549 2.1371 0
M  V30 154 H 4.1591 -6.4804 3.9803 0
M  V30 155 N 6.3779 -7.0930 1.5248 0
M  V30 156 C 4.1200 -6.4053 1.2684 0
M  V30 157 C 7.4026 -7.4652 2.2725 0
M  V30 158 C 7.3511 -7.5143 3.6645 0
M  V30 159 H 8.3066 -7.7475 1.7522 0
M  V30 160 H 8.2131 -7.8358 4.2272 0
M  V30 161 H 6.1021 -7.1717 5.3797 0
M  V30 162 N 4.2688 -6.4085 0.0098 0
M  V30 163 H 3.1782 -6.1638 1.7635 0
M  V30 164 H 3.4458 -6.1770 -0.5368 0
M  V30 165 C 4.9193 -11.5398 -1.7856 0
M  V30 166 C 5.0914 -10.5138 -2.7068 0
M  V30 167 C 5.4468 -9.2483 -2.2461 0
M  V30 168 H 4.9544 -10.6921 -3.7623 0
M  V30 169 N 5.6340 -8.9803 -0.9420 0
M  V30 170 C 5.6384 -8.1364 -3.1667 0
M  V30 171 C 5.4741 -9.9642 -0.0720 0
M  V30 172 C 5.1151 -11.2579 -0.4429 0
M  V30 173 H 5.6430 -9.7213 0.9679 0
M  V30 174 H 5.0013 -12.0244 0.3072 0
M  V30 175 H 4.6459 -12.5320 -2.1108 0
M  V30 176 N 5.8728 -6.9741 -2.7133 0
M  V30 177 H 5.5637 -8.3655 -4.2293 0
M  V30 178 H 6.0122 -6.2544 -3.4171 0
M  V30 179 Zn -6.7856 -5.2378 -0.4650 0 CHG=2
M  V30 180 C -4.7138 -9.6085 -0.5661 0
M  V30 181 C -4.0082 -8.4152 -0.5374 0
M  V30 182 C -4.7083 -7.2087 -0.4773 0
M  V30 183 H -2.9296 -8.4135 -0.5630 0
M  V30 184 N -6.0504 -7.1730 -0.4474 0
M  V30 185 C -4.0033 -5.9462 -0.4283 0
M  V30 186 C -6.7201 -8.3167 -0.4661 0
M  V30 187 C -6.0994 -9.5588 -0.5245 0
M  V30 188 H -7.7974 -8.2454 -0.4277 0
M  V30 189 H -6.6896 -10.4611 -0.5367 0
M  V30 190 H -4.1984 -10.5550 -0.6167 0
M  V30 191 N -4.6063 -4.8162 -0.3551 0
M  V30 192 H -2.9149 -6.0122 -0.4279 0
M  V30 193 C -7.9939 -4.9090 4.3009 0
M  V30 194 C -8.2490 -3.9242 3.3546 0
M  V30 195 C -7.8118 -4.1173 2.0463 0
M  V30 196 H -8.7834 -3.0266 3.6256 0
M  V30 197 N -7.1509 -5.2224 1.6639 0
M  V30 198 C -8.0531 -3.1249 1.0091 0
M  V30 199 C -6.9133 -6.1569 2.5682 0
M  V30 200 C -7.3124 -6.0465 3.8987 0
M  V30 201 H -6.3879 -7.0376 2.2275 0
M  V30 202 H -7.0992 -6.8407 4.5964 0
M  V30 203 H -8.3244 -4.7923 5.3216 0
M  V30 204 N -7.5706 -3.2947 -0.1507 0
M  V30 205 H -8.6517 -2.2594 1.2956 0
M  V30 206 H -7.7839 -2.5786 -0.8372 0
M  V30 207 C -11.2651 -6.5275 -2.1231 0
M  V30 208 C -10.1898 -6.1738 -2.9297 0
M  V30 209 C -8.9795 -5.8340 -2.3290 0
M  V30 210 H -10.2889 -6.1607 -4.0043 0
M  V30 211 N -8.8084 -5.8383 -0.9949 0
M  V30 212 C -7.8262 -5.4488 -3.1271 0
M  V30 213 C -9.8356 -6.1834 -0.2351 0
M  V30 214 C -11.0821 -6.5332 -0.7493 0
M  V30 215 H -9.6659 -6.1891 0.8331 0
M  V30 216 H -11.8852 -6.8072 -0.0835 0
M  V30 217 H -12.2165 -6.7939 -2.5579 0
M  V30 218 N -6.7501 -5.0826 -2.5591 0
M  V30 219 H -7.9491 -5.4909 -4.2088 0
M  V30 220 H -5.9933 -4.8341 -3.1894 0
M  V30 END ATOM
M  V30 BEGIN BOND
M  V30 1 2 1 2
M  V30 2 1 2 3
M  V30 3 2 3 4
M  V30 4 1 4 5
M  V30 5 1 5 6
M  V30 6 2 6 7
M  V30 7 1 7 8
M  V30 8 2 8 9
M  V30 9 1 9 10
M  V30 10 2 10 11
M  V30 11 1 5 12
M  V30 12 2 12 13
M  V30 13 1 13 14
M  V30 14 2 14 15
M  V30 15 1 15 16
M  V30 16 1 16 17
M  V30 17 2 17 18
M  V30 18 1 18 19
M  V30 19 2 19 20
M  V30 20 1 20 21
M  V30 21 2 21 22
M  V30 22 1 16 23
M  V30 23 2 23 24
M  V30 24 1 24 25
M  V30 25 2 25 26
M  V30 26 1 26 27
M  V30 27 2 27 28
M  V30 28 1 15 29
M  V30 29 2 29 30
M  V30 30 1 4 31
M  V30 31 2 31 32
M  V30 32 1 32 1
M  V30 33 1 11 6
M  V30 34 1 30 12
M  V30 35 1 22 17
M  V30 36 1 28 23
M  V30 37 1 2 33
M  V30 38 1 3 34
M  V30 39 1 7 35
M  V30 40 1 8 36
M  V30 41 1 10 37
M  V30 42 1 11 38
M  V30 43 1 13 39
M  V30 44 1 14 40
M  V30 45 1 18 41
M  V30 46 1 19 42
M  V30 47 1 21 43
M  V30 48 1 22 44
M  V30 49 1 24 45
M  V30 50 1 25 46
M  V30 51 1 27 47
M  V30 52 1 28 48
M  V30 53 1 29 49
M  V30 54 1 30 50
M  V30 55 1 31 51
M  V30 56 1 32 52
M  V30 57 1 54 64
M  V30 58 2 54 61
M  V30 59 1 55 54
M  V30 60 2 56 55
M  V30 61 1 56 58
M  V30 62 1 57 55
M  V30 63 2 58 60
M  V30 64 1 59 56
M  V30 65 1 60 61
M  V30 66 1 60 62
M  V30 67 1 61 63
M  V30 68 2 65 59
M  V30 69 1 66 59
M  V30 70 1 67 77
M  V30 71 2 67 74
M  V30 72 1 68 67
M  V30 73 2 69 68
M  V30 74 1 69 71
M  V30 75 1 70 68
M  V30 76 2 71 73
M  V30 77 1 72 69
M  V30 78 1 73 74
M  V30 79 1 73 75
M  V30 80 1 74 76
M  V30 81 2 78 72
M  V30 82 1 79 72
M  V30 83 1 80 78
M  V30 84 1 81 91
M  V30 85 2 81 88
M  V30 86 1 82 81
M  V30 87 2 83 82
M  V30 88 1 83 85
M  V30 89 1 84 82
M  V30 90 2 85 87
M  V30 91 1 86 83
M  V30 92 1 87 88
M  V30 93 1 87 89
M  V30 94 1 88 90
M  V30 95 2 92 86
M  V30 96 1 93 86
M  V30 97 1 94 92
M  V30 98 9 65 53
M  V30 99 9 58 53
M  V30 100 9 78 53
M  V30 101 9 71 53
M  V30 102 9 92 53
M  V30 103 9 85 53
M  V30 104 1 96 106
M  V30 105 2 96 103
M  V30 106 1 97 96
M  V30 107 2 98 97
M  V30 108 1 98 100
M  V30 109 1 99 97
M  V30 110 2 100 102
M  V30 111 1 101 98
M  V30 112 1 102 103
M  V30 113 1 102 104
M  V30 114 1 103 105
M  V30 115 2 107 101
M  V30 116 1 108 101
M  V30 117 1 109 119
M  V30 118 2 109 116
M  V30 119 1 110 109
M  V30 120 2 111 110
M  V30 121 1 111 113
M  V30 122 1 112 110
M  V30 123 2 113 115
M  V30 124 1 114 111
M  V30 125 1 115 116
M  V30 126 1 115 117
M  V30 127 1 116 118
M  V30 128 2 120 114
M  V30 129 1 121 114
M  V30 130 1 122 120
M  V30 131 1 123 133
M  V30 132 2 123 130
M  V30 133 1 124 123
M  V30 134 2 125 124
M  V30 135 1 125 127
M  V30 136 1 126 124
M  V30 137 2 127 129
M  V30 138 1 128 125
M  V30 139 1 129 130
M  V30 140 1 129 131
M  V30 141 1 130 132
M  V30 142 2 134 128
M  V30 143 1 135 128
M  V30 144 1 136 134
M  V30 145 9 107 95
M  V30 146 9 100 95
M  V30 147 9 120 95
M  V30 148 9 113 95
M  V30 149 9 134 95
M  V30 150 9 127 95
M  V30 151 1 138 148
M  V30 152 2 138 145
M  V30 153 1 139 138
M  V30 154 2 140 139
M  V30 155 1 140 142
M  V30 156 1 141 139
M  V30 157 2 142 144
M  V30 158 1 143 140
M  V30 159 1 144 145
M  V30 160 1 144 146
M  V30 161 1 145 147
M  V30 162 2 149 143
M  V30 163 1 150 143
M  V30 164 1 151 161
M  V30 165 2 151 158
M  V30 166 1 152 151
M  V30 167 2 153 152
M  V30 168 1 153 155
M  V30 169 1 154 152
M  V30 170 2 155 157
M  V30 171 1 156 153
M  V30 172 1 157 158
M  V30 173 1 157 159
M  V30 174 1 158 160
M  V30 175 2 162 156
M  V30 176 1 163 156
M  V30 177 1 164 162
M  V30 178 1 165 175
M  V30 179 2 165 172
M  V30 180 1 166 165
M  V30 181 2 167 166
M  V30 182 1 167 169
M  V30 183 1 168 166
M  V30 184 2 169 171
M  V30 185 1 170 167
M  V30 186 1 171 172
M  V30 187 1 171 173
M  V30 188 1 172 174
M  V30 189 2 176 170
M  V30 190 1 177 170
M  V30 191 1 178 176
M  V30 192 9 149 137
M  V30 193 9 142 137
M  V30 194 9 176 137
M  V30 195 9 169 137
M  V30 196 9 162 137
M  V30 197 9 155 137
M  V30 198 1 180 190
M  V30 199 2 180 187
M  V30 200 1 181 180
M  V30 201 2 182 181
M  V30 202 1 182 184
M  V30 203 1 183 181
M  V30 204 2 184 186
M  V30 205 1 185 182
M  V30 206 1 186 187
M  V30 207 1 186 188
M  V30 208 1 187 189
M  V30 209 2 191 185
M  V30 210 1 192 185
M  V30 211 1 193 203
M  V30 212 2 193 200
M  V30 213 1 194 193
M  V30 214 2 195 194
M  V30 215 1 195 197
M  V30 216 1 196 194
M  V30 217 2 197 199
M  V30 218 1 198 195
M  V30 219 1 199 200
M  V30 220 1 199 201
M  V30 221 1 200 202
M  V30 222 2 204 198
M  V30 223 1 205 198
M  V30 224 1 206 204
M  V30 225 1 207 217
M  V30 226 2 207 214
M  V30 227 1 208 207
M  V30 228 2 209 208
M  V30 229 1 209 211
M  V30 230 1 210 208
M  V30 231 2 211 213
M  V30 232 1 212 209
M  V30 233 1 213 214
M  V30 234 1 213 215
M  V30 235 1 214 216
M  V30 236 2 218 212
M  V30 237 1 219 212
M  V30 238 1 220 218
M  V30 239 9 191 179
M  V30 240 9 184 179
M  V30 241 9 218 179
M  V30 242 9 211 179
M  V30 243 9 204 179
M  V30 244 9 197 179
M  V30 245 1 1 65
M  V30 246 1 9 149
M  V30 247 1 20 191
M  V30 248 1 26 107
M  V30 END BOND
M  V30 END CTAB
M  END

$$$$
