
     RDKit          3D

  0  0  0  0  0  0  0  0  0  0999 V3000
M  V30 BEGIN CTAB
M  V30 COUNTS 236 268 0 0 0
M  V30 BEGIN ATOM
M  V30 1 C 5.7979 5.0844 -2.0998 0
M  V30 2 C 5.8792 3.9830 -1.2433 0
M  V30 3 C 4.7475 3.2631 -0.9125 0
M  V30 4 C 3.4970 3.6004 -1.4322 0
M  V30 5 C 2.2763 2.8542 -1.0772 0
M  V30 6 C 1.0971 3.5298 -0.8572 0
M  V30 7 C -0.0921 2.8420 -0.5549 0
M  V30 8 C -1.2869 3.5597 -0.3667 0
M  V30 9 C -2.4744 2.9140 -0.1047 0
M  V30 10 C -3.7114 3.6944 0.0776 0
M  V30 11 C -4.6698 3.3484 1.0318 0
M  V30 12 C -5.8158 4.1010 1.2025 0
M  V30 13 C -6.0368 5.2463 0.4329 0
M  V30 14 C -5.0724 5.6100 -0.5094 0
M  V30 15 C -3.9443 4.8384 -0.6923 0
M  V30 16 C -2.4688 1.5099 -0.0242 0
M  V30 17 C -1.3204 0.7551 -0.2006 0
M  V30 18 C -1.3233 -0.7074 -0.1353 0
M  V30 19 C -2.4841 -1.4432 0.0412 0
M  V30 20 C -2.4854 -2.8460 0.1405 0
M  V30 21 C -3.7335 -3.6109 0.3172 0
M  V30 22 C -3.7668 -4.7322 1.1517 0
M  V30 23 C -4.9074 -5.4966 1.2850 0
M  V30 24 C -6.0758 -5.1523 0.6034 0
M  V30 25 C -6.0548 -4.0250 -0.2233 0
M  V30 26 C -4.9027 -3.2763 -0.3671 0
M  V30 27 C -1.2820 -3.5096 0.0606 0
M  V30 28 C -0.0768 -2.8134 -0.1427 0
M  V30 29 C 1.1344 -3.5228 -0.2367 0
M  V30 30 C 2.3304 -2.8693 -0.4295 0
M  V30 31 C 3.5884 -3.6340 -0.4979 0
M  V30 32 C 3.6366 -4.8689 -1.1512 0
M  V30 33 C 4.7949 -5.6171 -1.1860 0
M  V30 34 C 5.9662 -5.1430 -0.5913 0
M  V30 35 C 5.9263 -3.9091 0.0642 0
M  V30 36 C 4.7566 -3.1762 0.1137 0
M  V30 37 C 2.3161 -1.4688 -0.5527 0
M  V30 38 C 1.1497 -0.7248 -0.4862 0
M  V30 39 C 1.1388 0.7303 -0.6383 0
M  V30 40 C 2.2782 1.4538 -0.9512 0
M  V30 41 C -0.0909 1.4243 -0.4603 0
M  V30 42 C -0.0836 -1.3968 -0.2551 0
M  V30 43 C 3.4253 4.7024 -2.2898 0
M  V30 44 C 4.5464 5.4405 -2.6066 0
M  V30 45 H 6.8288 3.7191 -0.8011 0
M  V30 46 H 4.8329 2.4378 -0.2216 0
M  V30 47 H 1.0680 4.6084 -0.9038 0
M  V30 48 H -1.2486 4.6379 -0.4152 0
M  V30 49 H -4.5064 2.4895 1.6653 0
M  V30 50 H -6.5257 3.8265 1.9692 0
M  V30 51 H -5.2456 6.4791 -1.1260 0
M  V30 52 H -3.2388 5.1122 -1.4618 0
M  V30 53 H -3.4123 1.0228 0.1620 0
M  V30 54 H -3.4343 -0.9418 0.1285 0
M  V30 55 H -2.8883 -4.9950 1.7215 0
M  V30 56 H -4.9203 -6.3430 1.9551 0
M  V30 57 H -6.9349 -3.7630 -0.7926 0
M  V30 58 H -4.9043 -2.4332 -1.0415 0
M  V30 59 H -1.2477 -4.5874 0.1184 0
M  V30 60 H 1.1092 -4.5966 -0.1242 0
M  V30 61 H 2.7569 -5.2341 -1.6587 0
M  V30 62 H 4.8211 -6.5582 -1.7144 0
M  V30 63 H 6.8057 -3.5456 0.5753 0
M  V30 64 H 4.7431 -2.2427 0.6559 0
M  V30 65 H 3.2604 -0.9796 -0.7285 0
M  V30 66 H 3.2083 0.9426 -1.1410 0
M  V30 67 H 2.4772 4.9674 -2.7325 0
M  V30 68 H 4.4766 6.2744 -3.2886 0
M  V30 69 Zn 7.1789 7.9854 -2.5375 0 CHG=2
M  V30 70 C 11.4703 6.1465 -3.8752 0
M  V30 71 C 10.3802 5.3830 -3.4834 0
M  V30 72 C 9.1965 6.0245 -3.1192 0
M  V30 73 H 10.4401 4.3060 -3.4631 0
M  V30 74 N 9.0813 7.3631 -3.1321 0
M  V30 75 C 8.0256 5.2647 -2.7273 0
M  V30 76 C 10.1251 8.0871 -3.5091 0
M  V30 77 C 11.3391 7.5271 -3.8900 0
M  V30 78 H 9.9940 9.1602 -3.5046 0
M  V30 79 H 12.1579 8.1614 -4.1895 0
M  V30 80 H 12.3980 5.6766 -4.1631 0
M  V30 81 N 6.9148 5.8399 -2.4650 0
M  V30 82 H 8.1325 4.1798 -2.7093 0
M  V30 83 C 8.1103 8.2120 2.3134 0
M  V30 84 C 6.8569 8.3784 1.7386 0
M  V30 85 C 6.7325 8.2845 0.3548 0
M  V30 86 H 5.9915 8.5841 2.3493 0
M  V30 87 N 7.7805 8.0407 -0.4479 0
M  V30 88 C 5.4461 8.4604 -0.3033 0
M  V30 89 C 8.9713 7.8850 0.1055 0
M  V30 90 C 9.1872 7.9589 1.4795 0
M  V30 91 H 9.7969 7.6997 -0.5671 0
M  V30 92 H 10.1805 7.8273 1.8782 0
M  V30 93 H 8.2405 8.2839 3.3821 0
M  V30 94 N 5.3630 8.3683 -1.5640 0
M  V30 95 H 4.5947 8.6733 0.3437 0
M  V30 96 H 4.4380 8.5123 -1.9559 0
M  V30 97 C 7.6763 12.7095 -3.7918 0
M  V30 98 C 7.1939 11.7135 -4.6321 0
M  V30 99 C 7.1046 10.4104 -4.1494 0
M  V30 100 H 6.8918 11.9417 -5.6427 0
M  V30 101 N 7.4752 10.0758 -2.9009 0
M  V30 102 C 6.5986 9.3297 -4.9832 0
M  V30 103 C 7.9363 11.0293 -2.1079 0
M  V30 104 C 8.0523 12.3590 -2.5050 0
M  V30 105 H 8.2325 10.7272 -1.1129 0
M  V30 106 H 8.4341 13.0969 -1.8173 0
M  V30 107 H 7.7571 13.7290 -4.1365 0
M  V30 108 N 6.4695 8.1640 -4.4974 0
M  V30 109 H 6.3437 9.5849 -6.0114 0
M  V30 110 H 6.1210 7.4624 -5.1443 0
M  V30 111 Zn -7.5455 -8.0833 0.5661 0 CHG=2
M  V30 112 C -11.9521 -6.2340 1.4393 0
M  V30 113 C -10.8000 -5.4745 1.2982 0
M  V30 114 C -9.5851 -6.1188 1.0641 0
M  V30 115 H -10.8368 -4.3983 1.3685 0
M  V30 116 N -9.4948 -7.4563 0.9784 0
M  V30 117 C -8.3580 -5.3614 0.9144 0
M  V30 118 C -10.5992 -8.1768 1.1121 0
M  V30 119 C -11.8493 -7.6137 1.3407 0
M  V30 120 H -10.4871 -9.2493 1.0366 0
M  V30 121 H -12.7178 -8.2453 1.4391 0
M  V30 122 H -12.9054 -5.7622 1.6210 0
M  V30 123 N -7.2247 -5.9341 0.7674 0
M  V30 124 H -8.4505 -4.2759 0.9626 0
M  V30 125 C -6.0192 -9.3519 5.0666 0
M  V30 126 C -5.2583 -9.4747 3.9108 0
M  V30 127 C -5.8000 -9.0518 2.7000 0
M  V30 128 H -4.2637 -9.8920 3.9452 0
M  V30 129 N -7.0373 -8.5380 2.6057 0
M  V30 130 C -5.0394 -9.1308 1.4595 0
M  V30 131 C -7.7578 -8.4253 3.7086 0
M  V30 132 C -7.2911 -8.8126 4.9627 0
M  V30 133 H -8.7504 -8.0124 3.5972 0
M  V30 134 H -7.9179 -8.6967 5.8325 0
M  V30 135 H -5.6279 -9.6713 6.0201 0
M  V30 136 N -5.5352 -8.6703 0.3888 0
M  V30 137 H -4.0493 -9.5835 1.5227 0
M  V30 138 H -4.9556 -8.7480 -0.4410 0
M  V30 139 C -8.8038 -12.5726 -1.0375 0
M  V30 140 C -8.7000 -11.4421 -1.8388 0
M  V30 141 C -8.3464 -10.2300 -1.2512 0
M  V30 142 H -8.8870 -11.4987 -2.9001 0
M  V30 143 N -8.1102 -10.1082 0.0667 0
M  V30 144 C -8.2032 -9.0208 -2.0486 0
M  V30 145 C -8.2176 -11.1882 0.8236 0
M  V30 146 C -8.5563 -12.4414 0.3196 0
M  V30 147 H -8.0314 -11.0567 1.8808 0
M  V30 148 H -8.6265 -13.2896 0.9822 0
M  V30 149 H -9.0726 -13.5269 -1.4638 0
M  V30 150 N -7.8176 -7.9413 -1.5032 0
M  V30 151 H -8.4347 -9.1085 -3.1098 0
M  V30 152 H -7.7388 -7.1456 -2.1293 0
M  V30 153 Zn 7.4150 -8.0386 -0.3686 0 CHG=2
M  V30 154 C 11.8235 -6.3207 -1.4548 0
M  V30 155 C 10.6914 -5.5324 -1.3079 0
M  V30 156 C 9.4743 -6.1409 -1.0015 0
M  V30 157 H 10.7446 -4.4620 -1.4324 0
M  V30 158 N 9.3671 -7.4697 -0.8350 0
M  V30 159 C 8.2597 -5.3593 -0.8782 0
M  V30 160 C 10.4515 -8.2179 -0.9782 0
M  V30 161 C 11.6999 -7.6923 -1.2902 0
M  V30 162 H 10.3250 -9.2820 -0.8354 0
M  V30 163 H 12.5508 -8.3456 -1.3995 0
M  V30 164 H 12.7775 -5.8768 -1.6936 0
M  V30 165 N 7.1265 -5.9159 -0.6778 0
M  V30 166 H 8.3585 -4.2820 -1.0128 0
M  V30 167 C 7.8104 -7.5126 4.5335 0
M  V30 168 C 6.6280 -7.7860 3.8582 0
M  V30 169 C 6.6558 -7.9025 2.4707 0
M  V30 170 H 5.7012 -7.9137 4.3959 0
M  V30 171 N 7.7849 -7.7621 1.7580 0
M  V30 172 C 5.4498 -8.1985 1.7118 0
M  V30 173 C 8.9074 -7.5036 2.4074 0
M  V30 174 C 8.9717 -7.3675 3.7921 0
M  V30 175 H 9.8017 -7.4055 1.8083 0
M  V30 176 H 9.9150 -7.1593 4.2714 0
M  V30 177 H 7.8229 -7.4212 5.6086 0
M  V30 178 N 5.5056 -8.3019 0.4503 0
M  V30 179 H 4.5324 -8.3240 2.2874 0
M  V30 180 H 4.6288 -8.5186 -0.0125 0
M  V30 181 C 8.0798 -12.8875 -0.8195 0
M  V30 182 C 7.6897 -12.0425 -1.8513 0
M  V30 183 C 7.5381 -10.6837 -1.5876 0
M  V30 184 H 7.5057 -12.4286 -2.8421 0
M  V30 185 N 7.7620 -10.1542 -0.3720 0
M  V30 186 C 7.1249 -9.7547 -2.6293 0
M  V30 187 C 8.1363 -10.9649 0.6043 0
M  V30 188 C 8.3053 -12.3364 0.4317 0
M  V30 189 H 8.3158 -10.5082 1.5677 0
M  V30 190 H 8.6117 -12.9519 1.2627 0
M  V30 191 H 8.2057 -13.9453 -0.9923 0
M  V30 192 N 6.9345 -8.5320 -2.3462 0
M  V30 193 H 6.9913 -10.1693 -3.6282 0
M  V30 194 H 6.6593 -7.9448 -3.1282 0
M  V30 195 Zn -7.3524 8.1896 0.7255 0 CHG=2
M  V30 196 C -11.9055 6.5332 1.0396 0
M  V30 197 C -10.7835 5.7223 0.9499 0
M  V30 198 C -9.5233 6.3130 0.8590 0
M  V30 199 H -10.8788 4.6476 0.9457 0
M  V30 200 N -9.3627 7.6469 0.8612 0
M  V30 201 C -8.3258 5.5048 0.7343 0
M  V30 202 C -10.4382 8.4166 0.9451 0
M  V30 203 C -11.7291 7.9089 1.0347 0
M  V30 204 H -10.2676 9.4841 0.9456 0
M  V30 205 H -12.5714 8.5790 1.0995 0
M  V30 206 H -12.8926 6.1033 1.1103 0
M  V30 207 N -7.1774 6.0407 0.5690 0
M  V30 208 H -8.4631 4.4233 0.7448 0
M  V30 209 C -6.3949 8.1096 5.5760 0
M  V30 210 C -5.4394 8.2777 4.5821 0
M  V30 211 C -5.8451 8.2739 3.2500 0
M  V30 212 H -4.3992 8.4163 4.8331 0
M  V30 213 N -7.1281 8.1156 2.8879 0
M  V30 214 C -4.8897 8.4558 2.1672 0
M  V30 215 C -8.0328 7.9572 3.8391 0
M  V30 216 C -7.7166 7.9445 5.1955 0
M  V30 217 H -9.0582 7.8414 3.5174 0
M  V30 218 H -8.4950 7.8146 5.9306 0
M  V30 219 H -6.1132 8.1130 6.6177 0
M  V30 220 N -5.2881 8.4520 0.9646 0
M  V30 221 H -3.8477 8.5941 2.4571 0
M  V30 222 H -4.5690 8.5930 0.2624 0
M  V30 223 C -8.0490 13.0030 0.0229 0
M  V30 224 C -7.9692 12.0581 -0.9928 0
M  V30 225 C -7.7703 10.7220 -0.6548 0
M  V30 226 H -8.0586 12.3504 -2.0277 0
M  V30 227 N -7.6600 10.3080 0.6197 0
M  V30 228 C -7.6707 9.6914 -1.6781 0
M  V30 229 C -7.7403 11.2134 1.5811 0
M  V30 230 C -7.9302 12.5707 1.3339 0
M  V30 231 H -7.6550 10.8483 2.5952 0
M  V30 232 H -7.9875 13.2666 2.1558 0
M  V30 233 H -8.2025 14.0462 -0.2069 0
M  V30 234 N -7.4256 8.4914 -1.3445 0
M  V30 235 H -7.8106 10.0129 -2.7098 0
M  V30 236 H -7.3832 7.8291 -2.1137 0
M  V30 END ATOM
M  V30 BEGIN BOND
M  V30 1 2 1 2
M  V30 2 1 2 3
M  V30 3 2 3 4
M  V30 4 1 4 5
M  V30 5 2 5 6
M  V30 6 1 6 7
M  V30 7 2 7 8
M  V30 8 1 8 9
M  V30 9 1 9 10
M  V30 10 2 10 11
M  V30 11 1 11 12
M  V30 12 2 12 13
M  V30 13 1 13 14
M  V30 14 2 14 15
M  V30 15 2 9 16
M  V30 16 1 16 17
M  V30 17 1 17 18
M  V30 18 2 18 19
M  V30 19 1 19 20
M  V30 20 1 20 21
M  V30 21 2 21 22
M  V30 22 1 22 23
M  V30 23 2 23 24
M  V30 24 1 24 25
M  V30 25 2 25 26
M  V30 26 2 20 27
M  V30 27 1 27 28
M  V30 28 1 28 29
M  V30 29 2 29 30
M  V30 30 1 30 31
M  V30 31 2 31 32
M  V30 32 1 32 33
M  V30 33 2 33 34
M  V30 34 1 34 35
M  V30 35 2 35 36
M  V30 36 1 30 37
M  V30 37 2 37 38
M  V30 38 1 38 39
M  V30 39 2 39 40
M  V30 40 1 39 41
M  V30 41 1 38 42
M  V30 42 1 4 43
M  V30 43 2 43 44
M  V30 44 1 44 1
M  V30 45 1 40 5
M  V30 46 1 41 7
M  V30 47 1 15 10
M  V30 48 2 41 17
M  V30 49 1 42 18
M  V30 50 1 26 21
M  V30 51 2 42 28
M  V30 52 1 36 31
M  V30 53 1 2 45
M  V30 54 1 3 46
M  V30 55 1 6 47
M  V30 56 1 8 48
M  V30 57 1 11 49
M  V30 58 1 12 50
M  V30 59 1 14 51
M  V30 60 1 15 52
M  V30 61 1 16 53
M  V30 62 1 19 54
M  V30 63 1 22 55
M  V30 64 1 23 56
M  V30 65 1 25 57
M  V30 66 1 26 58
M  V30 67 1 27 59
M  V30 68 1 29 60
M  V30 69 1 32 61
M  V30 70 1 33 62
M  V30 71 1 35 63
M  V30 72 1 36 64
M  V30 73 1 37 65
M  V30 74 1 40 66
M  V30 75 1 43 67
M  V30 76 1 44 68
M  V30 77 1 70 80
M  V30 78 2 70 77
M  V30 79 1 71 70
M  V30 80 2 72 71
M  V30 81 1 72 74
M  V30 82 1 73 71
M  V30 83 2 74 76
M  V30 84 1 75 72
M  V30 85 1 76 77
M  V30 86 1 76 78
M  V30 87 1 77 79
M  V30 88 2 81 75
M  V30 89 1 82 75
M  V30 90 1 83 93
M  V30 91 2 83 90
M  V30 92 1 84 83
M  V30 93 2 85 84
M  V30 94 1 85 87
M  V30 95 1 86 84
M  V30 96 2 87 89
M  V30 97 1 88 85
M  V30 98 1 89 90
M  V30 99 1 89 91
M  V30 100 1 90 92
M  V30 101 2 94 88
M  V30 102 1 95 88
M  V30 103 1 96 94
M  V30 104 1 97 107
M  V30 105 2 97 104
M  V30 106 1 98 97
M  V30 107 2 99 98
M  V30 108 1 99 101
M  V30 109 1 100 98
M  V30 110 2 101 103
M  V30 111 1 102 99
M  V30 112 1 103 104
M  V30 113 1 103 105
M  V30 114 1 104 106
M  V30 115 2 108 102
M  V30 116 1 109 102
M  V30 117 1 110 108
M  V30 118 9 81 69
M  V30 119 9 74 69
M  V30 120 9 94 69
M  V30 121 9 87 69
M  V30 122 9 108 69
M  V30 123 9 101 69
M  V30 124 1 112 122
M  V30 125 2 112 119
M  V30 126 1 113 112
M  V30 127 2 114 113
M  V30 128 1 114 116
M  V30 129 1 115 113
M  V30 130 2 116 118
M  V30 131 1 117 114
M  V30 132 1 118 119
M  V30 133 1 118 120
M  V30 134 1 119 121
M  V30 135 2 123 117
M  V30 136 1 124 117
M  V30 137 1 125 135
M  V30 138 2 125 132
M  V30 139 1 126 125
M  V30 140 2 127 126
M  V30 141 1 127 129
M  V30 142 1 128 126
M  V30 143 2 129 131
M  V30 144 1 130 127
M  V30 145 1 131 132
M  V30 146 1 131 133
M  V30 147 1 132 134
M  V30 148 2 136 130
M  V30 149 1 137 130
M  V30 150 1 138 136
M  V30 151 1 139 149
M  V30 152 2 139 146
M  V30 153 1 140 139
M  V30 154 2 141 140
M  V30 155 1 141 143
M  V30 156 1 142 140
M  V30 157 2 143 145
M  V30 158 1 144 141
M  V30 159 1 145 146
M  V30 160 1 145 147
M  V30 161 1 146 148
M  V30 162 2 150 144
M  V30 163 1 151 144
M  V30 164 1 152 150
M  V30 165 9 123 111
M  V30 166 9 116 111
M  V30 167 9 136 111
M  V30 168 9 129 111
M  V30 169 9 150 111
M  V30 170 9 143 111
M  V30 171 1 154 164
M  V30 172 2 154 161
M  V30 173 1 155 154
M  V30 174 2 156 155
M  V30 175 1 156 158
M  V30 176 1 157 155
M  V30 177 2 158 160
M  V30 178 1 159 156
M  V30 179 1 160 161
M  V30 180 1 160 162
M  V30 181 1 161 163
M  V30 182 2 165 159
M  V30 183 1 166 159
M  V30 184 1 167 177
M  V30 185 2 167 174
M  V30 186 1 168 167
M  V30 187 2 169 168
M  V30 188 1 169 171
M  V30 189 1 170 168
M  V30 190 2 171 173
M  V30 191 1 172 169
M  V30 192 1 173 174
M  V30 193 1 173 175
M  V30 194 1 174 176
M  V30 195 2 178 172
M  V30 196 1 179 172
M  V30 197 1 180 178
M  V30 198 1 181 191
M  V30 199 2 181 188
M  V30 200 1 182 181
M  V30 201 2 183 182
M  V30 202 1 183 185
M  V30 203 1 184 182
M  V30 204 2 185 187
M  V30 205 1 186 183
M  V30 206 1 187 188
M  V30 207 1 187 189
M  V30 208 1 188 190
M  V30 209 2 192 186
M  V30 210 1 193 186
M  V30 211 1 194 192
M  V30 212 9 165 153
M  V30 213 9 158 153
M  V30 214 9 192 153
M  V30 215 9 185 153
M  V30 216 9 178 153
M  V30 217 9 171 153
M  V30 218 1 196 206
M  V30 219 2 196 203
M  V30 220 1 197 196
M  V30 221 2 198 197
M  V30 222 1 198 200
M  V30 223 1 199 197
M  V30 224 2 200 202
M  V30 225 1 201 198
M  V30 226 1 202 203
M  V30 227 1 202 204
M  V30 228 1 203 205
M  V30 229 2 207 201
M  V30 230 1 208 201
M  V30 231 1 209 219
M  V30 232 2 209 216
M  V30 233 1 210 209
M  V30 234 2 211 210
M  V30 235 1 211 213
M  V30 236 1 212 210
M  V30 237 2 213 215
M  V30 238 1 214 211
M  V30 239 1 215 216
M  V30 240 1 215 217
M  V30 241 1 216 218
M  V30 242 2 220 214
M  V30 243 1 221 214
M  V30 244 1 222 220
M  V30 245 1 223 233
M  V30 246 2 223 230
M  V30 247 1 224 223
M  V30 248 2 225 224
M  V30 249 1 225 227
M  V30 250 1 226 224
M  V30 251 2 227 229
M  V30 252 1 228 225
M  V30 253 1 229 230
M  V30 254 1 229 231
M  V30 255 1 230 232
M  V30 256 2 234 228
M  V30 257 1 235 228
M  V30 258 1 236 234
M  V30 259 9 207 195
M  V30 260 9 200 195
M  V30 261 9 234 195
M  V30 262 9 227 195
M  V30 263 9 220 195
M  V30 264 9 213 195
M  V30 265 1 1 81
M  V30 266 1 34 165
M  V30 267 1 24 123
M  V30 268 1 13 207
M  V30 END BOND
M  V30 END CTAB
M  END

$$$$
