
     RDKit          3D

  0  0  0  0  0  0  0  0  0  0999 V3000
M  V30 BEGIN CTAB
M  V30 COUNTS 236 266 0 0 0
M  V30 BEGIN ATOM
M  V30 1 C 8.1985 -5.0283 -0.4897 0
M  V30 2 C 7.0152 -4.8654 -1.2129 0
M  V30 3 C 6.3231 -3.6713 -1.1720 0
M  V30 4 C 6.7623 -2.6025 -0.3860 0
M  V30 5 C 6.0304 -1.3202 -0.3593 0
M  V30 6 C 6.7246 -0.1113 -0.3410 0
M  V30 7 C 6.0479 1.1071 -0.3168 0
M  V30 8 C 6.7986 2.3783 -0.2839 0
M  V30 9 C 6.3977 3.4358 0.5363 0
M  V30 10 C 7.1064 4.6206 0.5828 0
M  V30 11 C 8.2617 4.7891 -0.1821 0
M  V30 12 C 8.6602 3.7405 -1.0160 0
M  V30 13 C 7.9380 2.5645 -1.0679 0
M  V30 14 C 4.6541 1.1026 -0.3181 0
M  V30 15 C 3.9349 -0.0906 -0.3429 0
M  V30 16 C 2.4568 -0.0778 -0.3523 0
M  V30 17 C 1.7203 -0.9586 0.4381 0
M  V30 18 C 0.3373 -0.9432 0.4295 0
M  V30 19 C -0.3687 -0.0441 -0.3682 0
M  V30 20 C -1.8469 -0.0199 -0.3676 0
M  V30 21 C -2.5355 1.1919 -0.3259 0
M  V30 22 C -3.9290 1.2314 -0.3152 0
M  V30 23 C -4.6670 2.5064 -0.2671 0
M  V30 24 C -5.8515 2.6759 -0.9905 0
M  V30 25 C -6.5687 3.8527 -0.9305 0
M  V30 26 C -6.1065 4.9273 -0.1685 0
M  V30 27 C -4.9262 4.7650 0.5621 0
M  V30 28 C -4.2299 3.5728 0.5195 0
M  V30 29 C -4.6337 0.0303 -0.3427 0
M  V30 30 C -3.9720 -1.1933 -0.3884 0
M  V30 31 C -4.7577 -2.4407 -0.4272 0
M  V30 32 C -4.4184 -3.4861 -1.2857 0
M  V30 33 C -5.1653 -4.6468 -1.3262 0
M  V30 34 C -6.2924 -4.8018 -0.5131 0
M  V30 35 C -6.6491 -3.7505 0.3323 0
M  V30 36 C -5.8887 -2.5995 0.3778 0
M  V30 37 C -2.5785 -1.2064 -0.4029 0
M  V30 38 C 0.3675 0.8357 -1.1606 0
M  V30 39 C 1.7502 0.8179 -1.1537 0
M  V30 40 C 4.6363 -1.2943 -0.3596 0
M  V30 41 C 7.9192 -2.7906 0.3722 0
M  V30 42 C 8.6315 -3.9731 0.3173 0
M  V30 43 H 6.6778 -5.6700 -1.8490 0
M  V30 44 H 5.4421 -3.5526 -1.7841 0
M  V30 45 H 7.8041 -0.1184 -0.3456 0
M  V30 46 H 5.5330 3.3151 1.1713 0
M  V30 47 H 6.8016 5.4079 1.2556 0
M  V30 48 H 9.5219 3.8647 -1.6547 0
M  V30 49 H 8.2575 1.7833 -1.7403 0
M  V30 50 H 4.1200 2.0412 -0.3049 0
M  V30 51 H 2.2365 -1.6488 1.0887 0
M  V30 52 H -0.2022 -1.6223 1.0730 0
M  V30 53 H -1.9758 2.1151 -0.3083 0
M  V30 54 H -6.1995 1.8808 -1.6319 0
M  V30 55 H -7.4691 3.9757 -1.5134 0
M  V30 56 H -4.5779 5.5643 1.1995 0
M  V30 57 H -3.3389 3.4622 1.1182 0
M  V30 58 H -5.7133 0.0459 -0.3306 0
M  V30 59 H -3.5692 -3.3812 -1.9432 0
M  V30 60 H -4.9005 -5.4260 -2.0252 0
M  V30 61 H -7.4982 -3.8689 0.9881 0
M  V30 62 H -6.1584 -1.8168 1.0707 0
M  V30 63 H -2.0554 -2.1504 -0.4359 0
M  V30 64 H -0.1485 1.5255 -1.8118 0
M  V30 65 H 2.2903 1.4940 -1.7997 0
M  V30 66 H 4.0874 -2.2243 -0.3716 0
M  V30 67 H 8.2639 -2.0030 1.0243 0
M  V30 68 H 9.5115 -4.0945 0.9313 0
M  V30 69 Zn 8.4220 8.0427 -0.3561 0 CHG=2
M  V30 70 C 13.2230 8.2014 0.2170 0
M  V30 71 C 12.4773 7.0326 0.1569 0
M  V30 72 C 11.0914 7.1174 0.0212 0
M  V30 73 H 12.9600 6.0695 0.2143 0
M  V30 74 N 10.4574 8.2995 -0.0518 0
M  V30 75 C 10.2703 5.9233 -0.0327 0
M  V30 76 C 11.1744 9.4124 0.0131 0
M  V30 77 C 12.5575 9.4162 0.1470 0
M  V30 78 H 10.6259 10.3423 -0.0402 0
M  V30 79 H 13.0953 10.3496 0.1941 0
M  V30 80 H 14.2968 8.1658 0.3174 0
M  V30 81 N 8.9938 5.9812 -0.1000 0
M  V30 82 H 10.7974 4.9706 0.0169 0
M  V30 83 C 6.8185 8.8317 4.2294 0
M  V30 84 C 5.9976 8.5188 3.1534 0
M  V30 85 C 6.5757 8.3107 1.9037 0
M  V30 86 H 4.9288 8.4386 3.2790 0
M  V30 87 N 7.8993 8.4014 1.7020 0
M  V30 88 C 5.7671 7.9769 0.7378 0
M  V30 89 C 8.6760 8.7020 2.7285 0
M  V30 90 C 8.1835 8.9257 4.0124 0
M  V30 91 H 9.7358 8.7730 2.5297 0
M  V30 92 H 8.8587 9.1704 4.8170 0
M  V30 93 H 6.4016 9.0000 5.2104 0
M  V30 94 N 6.3278 7.7511 -0.3747 0
M  V30 95 H 4.6881 7.9317 0.8922 0
M  V30 96 H 5.7129 7.5209 -1.1487 0
M  V30 97 C 7.6937 12.5804 -2.1883 0
M  V30 98 C 7.9887 11.4566 -2.9496 0
M  V30 99 C 8.1787 10.2367 -2.3042 0
M  V30 100 H 8.0710 11.5241 -4.0233 0
M  V30 101 N 8.0858 10.1047 -0.9708 0
M  V30 102 C 8.4944 9.0297 -3.0558 0
M  V30 103 C 7.8115 11.1809 -0.2524 0
M  V30 104 C 7.6066 12.4391 -0.8126 0
M  V30 105 H 7.7555 11.0444 0.8189 0
M  V30 106 H 7.3893 13.2852 -0.1803 0
M  V30 107 H 7.5412 13.5399 -2.6584 0
M  V30 108 N 8.6150 7.9194 -2.4536 0
M  V30 109 H 8.6141 9.1467 -4.1326 0
M  V30 110 H 8.8406 7.1267 -3.0475 0
M  V30 111 Zn -8.9488 6.4973 0.0598 0 CHG=2
M  V30 112 C -6.9566 10.8919 -0.4808 0
M  V30 113 C -6.2360 9.7075 -0.4427 0
M  V30 114 C -6.9182 8.5026 -0.2739 0
M  V30 115 H -5.1623 9.7117 -0.5463 0
M  V30 116 N -8.2540 8.4560 -0.1480 0
M  V30 117 C -6.2073 7.2396 -0.2455 0
M  V30 118 C -8.9373 9.5905 -0.1834 0
M  V30 119 C -8.3356 10.8327 -0.3462 0
M  V30 120 H -10.0092 9.5108 -0.0720 0
M  V30 121 H -8.9356 11.7279 -0.3664 0
M  V30 122 H -6.4558 11.8385 -0.6120 0
M  V30 123 N -6.8275 6.1240 -0.1757 0
M  V30 124 H -5.1216 7.2891 -0.3279 0
M  V30 125 C -8.6607 6.3312 4.9902 0
M  V30 126 C -8.9192 5.2334 4.1796 0
M  V30 127 C -8.9819 5.4146 2.7999 0
M  V30 128 H -9.0770 4.2562 4.6090 0
M  V30 129 N -8.7895 6.6106 2.2229 0
M  V30 130 C -9.2894 4.3090 1.9038 0
M  V30 131 C -8.5461 7.6521 3.0000 0
M  V30 132 C -8.4754 7.5652 4.3882 0
M  V30 133 H -8.4085 8.6035 2.5061 0
M  V30 134 H -8.2855 8.4483 4.9772 0
M  V30 135 H -8.6133 6.2256 6.0631 0
M  V30 136 N -9.3473 4.5032 0.6536 0
M  V30 137 H -9.4714 3.3422 2.3744 0
M  V30 138 H -9.5843 3.6939 0.0885 0
M  V30 139 C -13.7304 7.5049 -0.5023 0
M  V30 140 C -12.8607 7.1915 -1.5398 0
M  V30 141 C -11.5259 6.9271 -1.2425 0
M  V30 142 H -13.2104 7.1523 -2.5599 0
M  V30 143 N -11.0443 6.9673 0.0120 0
M  V30 144 C -10.5722 6.5908 -2.2896 0
M  V30 145 C -11.8776 7.2707 0.9935 0
M  V30 146 C -13.2276 7.5451 0.7884 0
M  V30 147 H -11.4592 7.3034 1.9899 0
M  V30 148 H -13.8637 7.7887 1.6244 0
M  V30 149 H -14.7705 7.7147 -0.6997 0
M  V30 150 N -9.3786 6.2856 -1.9840 0
M  V30 151 H -10.9439 6.6153 -3.3135 0
M  V30 152 H -8.7697 6.0754 -2.7698 0
M  V30 153 Zn 8.2497 -8.2793 -0.5158 0 CHG=2
M  V30 154 C 13.0357 -8.5698 -1.2107 0
M  V30 155 C 12.3388 -7.3801 -1.0547 0
M  V30 156 C 10.9587 -7.4224 -0.8547 0
M  V30 157 H 12.8540 -6.4331 -1.0911 0
M  V30 158 N 10.2851 -8.5835 -0.8091 0
M  V30 159 C 10.1858 -6.2037 -0.7063 0
M  V30 160 C 10.9565 -9.7167 -0.9558 0
M  V30 161 C 12.3306 -9.7629 -1.1580 0
M  V30 162 H 10.3784 -10.6285 -0.9051 0
M  V30 163 H 12.8310 -10.7112 -1.2702 0
M  V30 164 H 14.1031 -8.5669 -1.3690 0
M  V30 165 N 8.9108 -6.2269 -0.6082 0
M  V30 166 H 10.7448 -5.2684 -0.7246 0
M  V30 167 C 8.3986 -8.3561 4.4205 0
M  V30 168 C 7.2890 -7.9856 3.6715 0
M  V30 169 C 7.3716 -8.0225 2.2817 0
M  V30 170 H 6.3743 -7.6793 4.1548 0
M  V30 171 N 8.4893 -8.3930 1.6382 0
M  V30 172 C 6.2297 -7.6813 1.4453 0
M  V30 173 C 9.5412 -8.7474 2.3566 0
M  V30 174 C 9.5450 -8.7495 3.7494 0
M  V30 175 H 10.4219 -9.0524 1.8094 0
M  V30 176 H 10.4273 -9.0566 4.2881 0
M  V30 177 H 8.3655 -8.3435 5.4990 0
M  V30 178 N 6.3275 -7.7382 0.1837 0
M  V30 179 H 5.3157 -7.3962 1.9674 0
M  V30 180 H 5.4891 -7.5006 -0.3372 0
M  V30 181 C 6.8445 -12.9130 -1.4414 0
M  V30 182 C 6.9524 -11.9138 -2.4005 0
M  V30 183 C 7.3621 -10.6428 -2.0047 0
M  V30 184 H 6.7244 -12.1154 -3.4358 0
M  V30 185 N 7.6591 -10.3458 -0.7285 0
M  V30 186 C 7.4968 -9.5591 -2.9684 0
M  V30 187 C 7.5592 -11.3036 0.1779 0
M  V30 188 C 7.1557 -12.6010 -0.1276 0
M  V30 189 H 7.8152 -11.0361 1.1936 0
M  V30 190 H 7.0943 -13.3463 0.6493 0
M  V30 191 H 6.5308 -13.9084 -1.7160 0
M  V30 192 N 7.8022 -8.3940 -2.5701 0
M  V30 193 H 7.3212 -9.8125 -4.0137 0
M  V30 194 H 7.8937 -7.6940 -3.3009 0
M  V30 195 Zn -9.1724 -6.3370 -0.7653 0 CHG=2
M  V30 196 C -7.1986 -10.7609 -0.5519 0
M  V30 197 C -6.4743 -9.5780 -0.5416 0
M  V30 198 C -7.1584 -8.3629 -0.5776 0
M  V30 199 H -5.3962 -9.5916 -0.5055 0
M  V30 200 N -8.4988 -8.3042 -0.6226 0
M  V30 201 C -6.4421 -7.1039 -0.5472 0
M  V30 202 C -9.1858 -9.4371 -0.6263 0
M  V30 203 C -8.5830 -10.6888 -0.5914 0
M  V30 204 H -10.2624 -9.3477 -0.6540 0
M  V30 205 H -9.1868 -11.5819 -0.5953 0
M  V30 206 H -6.6965 -11.7155 -0.5275 0
M  V30 207 N -7.0494 -5.9786 -0.5199 0
M  V30 208 H -5.3542 -7.1660 -0.5158 0
M  V30 209 C -10.5907 -5.6543 3.8981 0
M  V30 210 C -10.7038 -4.7003 2.8945 0
M  V30 211 C -10.2384 -5.0072 1.6182 0
M  V30 212 H -11.1484 -3.7379 3.0961 0
M  V30 213 N -9.6840 -6.1935 1.3222 0
M  V30 214 C -10.3275 -4.0478 0.5251 0
M  V30 215 C -9.5795 -7.0977 2.2807 0
M  V30 216 C -10.0166 -6.8757 3.5848 0
M  V30 217 H -9.1334 -8.0434 2.0073 0
M  V30 218 H -9.9120 -7.6476 4.3305 0
M  V30 219 H -10.9453 -5.4490 4.8965 0
M  V30 220 N -9.8496 -4.3403 -0.6107 0
M  V30 221 H -10.8105 -3.0964 0.7522 0
M  V30 222 H -9.9432 -3.6330 -1.3324 0
M  V30 223 C -13.5922 -7.5295 -2.6274 0
M  V30 224 C -12.4649 -7.2381 -3.3856 0
M  V30 225 C -11.2749 -6.9270 -2.7314 0
M  V30 226 H -12.5073 -7.2509 -4.4637 0
M  V30 227 N -11.1744 -6.8988 -1.3916 0
M  V30 228 C -10.0666 -6.6114 -3.4791 0
M  V30 229 C -12.2508 -7.1838 -0.6772 0
M  V30 230 C -13.4810 -7.5035 -1.2464 0
M  V30 231 H -12.1362 -7.1631 0.3979 0
M  V30 232 H -14.3271 -7.7293 -0.6170 0
M  V30 233 H -14.5294 -7.7728 -3.1043 0
M  V30 234 N -9.0055 -6.2819 -2.8649 0
M  V30 235 H -10.1378 -6.6738 -4.5647 0
M  V30 236 H -8.2075 -6.0780 -3.4593 0
M  V30 END ATOM
M  V30 BEGIN BOND
M  V30 1 2 1 2
M  V30 2 1 2 3
M  V30 3 2 3 4
M  V30 4 1 4 5
M  V30 5 2 5 6
M  V30 6 1 6 7
M  V30 7 1 7 8
M  V30 8 2 8 9
M  V30 9 1 9 10
M  V30 10 2 10 11
M  V30 11 1 11 12
M  V30 12 2 12 13
M  V30 13 2 7 14
M  V30 14 1 14 15
M  V30 15 1 15 16
M  V30 16 2 16 17
M  V30 17 1 17 18
M  V30 18 2 18 19
M  V30 19 1 19 20
M  V30 20 2 20 21
M  V30 21 1 21 22
M  V30 22 1 22 23
M  V30 23 2 23 24
M  V30 24 1 24 25
M  V30 25 2 25 26
M  V30 26 1 26 27
M  V30 27 2 27 28
M  V30 28 2 22 29
M  V30 29 1 29 30
M  V30 30 1 30 31
M  V30 31 2 31 32
M  V30 32 1 32 33
M  V30 33 2 33 34
M  V30 34 1 34 35
M  V30 35 2 35 36
M  V30 36 2 30 37
M  V30 37 1 19 38
M  V30 38 2 38 39
M  V30 39 2 15 40
M  V30 40 1 4 41
M  V30 41 2 41 42
M  V30 42 1 42 1
M  V30 43 1 40 5
M  V30 44 1 13 8
M  V30 45 1 39 16
M  V30 46 1 37 20
M  V30 47 1 28 23
M  V30 48 1 36 31
M  V30 49 1 2 43
M  V30 50 1 3 44
M  V30 51 1 6 45
M  V30 52 1 9 46
M  V30 53 1 10 47
M  V30 54 1 12 48
M  V30 55 1 13 49
M  V30 56 1 14 50
M  V30 57 1 17 51
M  V30 58 1 18 52
M  V30 59 1 21 53
M  V30 60 1 24 54
M  V30 61 1 25 55
M  V30 62 1 27 56
M  V30 63 1 28 57
M  V30 64 1 29 58
M  V30 65 1 32 59
M  V30 66 1 33 60
M  V30 67 1 35 61
M  V30 68 1 36 62
M  V30 69 1 37 63
M  V30 70 1 38 64
M  V30 71 1 39 65
M  V30 72 1 40 66
M  V30 73 1 41 67
M  V30 74 1 42 68
M  V30 75 1 70 80
M  V30 76 2 70 77
M  V30 77 1 71 70
M  V30 78 2 72 71
M  V30 79 1 72 74
M  V30 80 1 73 71
M  V30 81 2 74 76
M  V30 82 1 75 72
M  V30 83 1 76 77
M  V30 84 1 76 78
M  V30 85 1 77 79
M  V30 86 2 81 75
M  V30 87 1 82 75
M  V30 88 1 83 93
M  V30 89 2 83 90
M  V30 90 1 84 83
M  V30 91 2 85 84
M  V30 92 1 85 87
M  V30 93 1 86 84
M  V30 94 2 87 89
M  V30 95 1 88 85
M  V30 96 1 89 90
M  V30 97 1 89 91
M  V30 98 1 90 92
M  V30 99 2 94 88
M  V30 100 1 95 88
M  V30 101 1 96 94
M  V30 102 1 97 107
M  V30 103 2 97 104
M  V30 104 1 98 97
M  V30 105 2 99 98
M  V30 106 1 99 101
M  V30 107 1 100 98
M  V30 108 2 101 103
M  V30 109 1 102 99
M  V30 110 1 103 104
M  V30 111 1 103 105
M  V30 112 1 104 106
M  V30 113 2 108 102
M  V30 114 1 109 102
M  V30 115 1 110 108
M  V30 116 9 81 69
M  V30 117 9 74 69
M  V30 118 9 94 69
M  V30 119 9 87 69
M  V30 120 9 108 69
M  V30 121 9 101 69
M  V30 122 1 112 122
M  V30 123 2 112 119
M  V30 124 1 113 112
M  V30 125 2 114 113
M  V30 126 1 114 116
M  V30 127 1 115 113
M  V30 128 2 116 118
M  V30 129 1 117 114
M  V30 130 1 118 119
M  V30 131 1 118 120
M  V30 132 1 119 121
M  V30 133 2 123 117
M  V30 134 1 124 117
M  V30 135 1 125 135
M  V30 136 2 125 132
M  V30 137 1 126 125
M  V30 138 2 127 126
M  V30 139 1 127 129
M  V30 140 1 128 126
M  V30 141 2 129 131
M  V30 142 1 130 127
M  V30 143 1 131 132
M  V30 144 1 131 133
M  V30 145 1 132 134
M  V30 146 2 136 130
M  V30 147 1 137 130
M  V30 148 1 138 136
M  V30 149 1 139 149
M  V30 150 2 139 146
M  V30 151 1 140 139
M  V30 152 2 141 140
M  V30 153 1 141 143
M  V30 154 1 142 140
M  V30 155 2 143 145
M  V30 156 1 144 141
M  V30 157 1 145 146
M  V30 158 1 145 147
M  V30 159 1 146 148
M  V30 160 2 150 144
M  V30 161 1 151 144
M  V30 162 1 152 150
M  V30 163 9 123 111
M  V30 164 9 116 111
M  V30 165 9 136 111
M  V30 166 9 129 111
M  V30 167 9 150 111
M  V30 168 9 143 111
M  V30 169 1 154 164
M  V30 170 2 154 161
M  V30 171 1 155 154
M  V30 172 2 156 155
M  V30 173 1 156 158
M  V30 174 1 157 155
M  V30 175 2 158 160
M  V30 176 1 159 156
M  V30 177 1 160 161
M  V30 178 1 160 162
M  V30 179 1 161 163
M  V30 180 2 165 159
M  V30 181 1 166 159
M  V30 182 1 167 177
M  V30 183 2 167 174
M  V30 184 1 168 167
M  V30 185 2 169 168
M  V30 186 1 169 171
M  V30 187 1 170 168
M  V30 188 2 171 173
M  V30 189 1 172 169
M  V30 190 1 173 174
M  V30 191 1 173 175
M  V30 192 1 174 176
M  V30 193 2 178 172
M  V30 194 1 179 172
M  V30 195 1 180 178
M  V30 196 1 181 191
M  V30 197 2 181 188
M  V30 198 1 182 181
M  V30 199 2 183 182
M  V30 200 1 183 185
M  V30 201 1 184 182
M  V30 202 2 185 187
M  V30 203 1 186 183
M  V30 204 1 187 188
M  V30 205 1 187 189
M  V30 206 1 188 190
M  V30 207 2 192 186
M  V30 208 1 193 186
M  V30 209 1 194 192
M  V30 210 9 165 153
M  V30 211 9 158 153
M  V30 212 9 192 153
M  V30 213 9 185 153
M  V30 214 9 178 153
M  V30 215 9 171 153
M  V30 216 1 196 206
M  V30 217 2 196 203
M  V30 218 1 197 196
M  V30 219 2 198 197
M  V30 220 1 198 200
M  V30 221 1 199 197
M  V30 222 2 200 202
M  V30 223 1 201 198
M  V30 224 1 202 203
M  V30 225 1 202 204
M  V30 226 1 203 205
M  V30 227 2 207 201
M  V30 228 1 208 201
M  V30 229 1 209 219
M  V30 230 2 209 216
M  V30 231 1 210 209
M  V30 232 2 211 210
M  V30 233 1 211 213
M  V30 234 1 212 210
M  V30 235 2 213 215
M  V30 236 1 214 211
M  V30 237 1 215 216
M  V30 238 1 215 217
M  V30 239 1 216 218
M  V30 240 2 220 214
M  V30 241 1 221 214
M  V30 242 1 222 220
M  V30 243 1 223 233
M  V30 244 2 223 230
M  V30 245 1 224 223
M  V30 246 2 225 224
M  V30 247 1 225 227
M  V30 248 1 226 224
M  V30 249 2 227 229
M  V30 250 1 228 225
M  V30 251 1 229 230
M  V30 252 1 229 231
M  V30 253 1 230 232
M  V30 254 2 234 228
M  V30 255 1 235 228
M  V30 256 1 236 234
M  V30 257 9 207 195
M  V30 258 9 200 195
M  V30 259 9 234 195
M  V30 260 9 227 195
M  V30 261 9 220 195
M  V30 262 9 213 195
M  V30 263 1 11 81
M  V30 264 1 1 165
M  V30 265 1 34 207
M  V30 266 1 26 123
M  V30 END BOND
M  V30 END CTAB
M  END

$$$$
