
     RDKit          3D

  0  0  0  0  0  0  0  0  0  0999 V3000
M  V30 BEGIN CTAB
M  V30 COUNTS 216 244 0 0 0
M  V30 BEGIN ATOM
M  V30 1 C -4.8922 2.8984 0.1542 0
M  V30 2 C -3.9213 3.3047 -0.7646 0
M  V30 3 C -2.7658 2.5692 -0.9477 0
M  V30 4 C -2.5162 1.4074 -0.2115 0
M  V30 5 C -1.2502 0.6555 -0.3477 0
M  V30 6 C -0.0453 1.3562 -0.3831 0
M  V30 7 C 1.2035 0.7364 -0.3942 0
M  V30 8 C 2.4083 1.5779 -0.5643 0
M  V30 9 C 2.5726 2.7639 0.1531 0
M  V30 10 C 3.6403 3.6099 -0.0858 0
M  V30 11 C 4.5962 3.2957 -1.0546 0
M  V30 12 C 4.4608 2.0886 -1.7445 0
M  V30 13 C 3.3849 1.2543 -1.5100 0
M  V30 14 C 1.2509 -0.6680 -0.3153 0
M  V30 15 C 2.5157 -1.4147 -0.1440 0
M  V30 16 C 2.7715 -2.6001 -0.8393 0
M  V30 17 C 3.9257 -3.3286 -0.6230 0
M  V30 18 C 4.8893 -2.8915 0.2893 0
M  V30 19 C 4.6336 -1.7100 0.9949 0
M  V30 20 C 3.4705 -0.9944 0.7853 0
M  V30 21 C 0.0463 -1.3697 -0.3379 0
M  V30 22 C -1.2023 -0.7507 -0.3800 0
M  V30 23 C -2.4058 -1.5974 -0.5328 0
M  V30 24 C -2.5769 -2.7591 0.2218 0
M  V30 25 C -3.6428 -3.6125 0.0016 0
M  V30 26 C -4.5899 -3.3303 -0.9856 0
M  V30 27 C -4.4480 -2.1467 -1.7137 0
M  V30 28 C -3.3740 -1.3051 -1.4972 0
M  V30 29 C -3.4785 1.0181 0.7235 0
M  V30 30 C -4.6428 1.7407 0.9003 0
M  V30 31 H -4.1029 4.1886 -1.3566 0
M  V30 32 H -2.0508 2.8922 -1.6895 0
M  V30 33 H -0.0794 2.4359 -0.4034 0
M  V30 34 H 1.8572 3.0281 0.9177 0
M  V30 35 H 3.7467 4.5122 0.4984 0
M  V30 36 H 5.1815 1.8406 -2.5092 0
M  V30 37 H 3.2801 0.3518 -2.0934 0
M  V30 38 H 2.0624 -2.9478 -1.5756 0
M  V30 39 H 4.1121 -4.2314 -1.1841 0
M  V30 40 H 5.3264 -1.3823 1.7570 0
M  V30 41 H 3.2865 -0.1055 1.3700 0
M  V30 42 H 0.0804 -2.4494 -0.3223 0
M  V30 43 H -1.8683 -2.9980 1.0010 0
M  V30 44 H -3.7546 -4.4949 0.6143 0
M  V30 45 H -5.1617 -1.9240 -2.4924 0
M  V30 46 H -3.2638 -0.4222 -2.1089 0
M  V30 47 H -3.2997 0.1488 1.3385 0
M  V30 48 H -5.3416 1.4384 1.6673 0
M  V30 49 Zn 7.8249 3.7316 -1.5556 0 CHG=2
M  V30 50 C 7.4221 8.4986 -2.2825 0
M  V30 51 C 6.3515 7.6679 -1.9777 0
M  V30 52 C 6.5814 6.3066 -1.7784 0
M  V30 53 H 5.3531 8.0693 -1.8991 0
M  V30 54 N 7.8122 5.7754 -1.8745 0
M  V30 55 C 5.4907 5.4000 -1.4699 0
M  V30 56 C 8.8305 6.5726 -2.1649 0
M  V30 57 C 8.6876 7.9398 -2.3764 0
M  V30 58 H 9.8044 6.1072 -2.2290 0
M  V30 59 H 9.5490 8.5461 -2.6087 0
M  V30 60 H 7.2728 9.5554 -2.4432 0
M  V30 61 N 5.6740 4.1409 -1.3494 0
M  V30 62 H 4.5008 5.8491 -1.3811 0
M  V30 63 C 8.3810 4.0231 3.3534 0
M  V30 64 C 7.9461 2.8907 2.6765 0
M  V30 65 C 7.8597 2.9267 1.2866 0
M  V30 66 H 7.6875 1.9930 3.2169 0
M  V30 67 N 8.1643 4.0237 0.5759 0
M  V30 68 C 7.4619 1.7568 0.5200 0
M  V30 69 C 8.5797 5.0979 1.2249 0
M  V30 70 C 8.7107 5.1460 2.6119 0
M  V30 71 H 8.8296 5.9611 0.6245 0
M  V30 72 H 9.0662 6.0440 3.0920 0
M  V30 73 H 8.4671 4.0246 4.4291 0
M  V30 74 N 7.4581 1.7943 -0.7455 0
M  V30 75 H 7.1907 0.8720 1.0997 0
M  V30 76 H 7.1829 0.9431 -1.2242 0
M  V30 77 C 12.3884 2.8126 -3.1031 0
M  V30 78 C 11.2635 2.8274 -3.9197 0
M  V30 79 C 10.0202 3.0876 -3.3486 0
M  V30 80 H 11.3498 2.6420 -4.9795 0
M  V30 81 N 9.8647 3.3297 -2.0342 0
M  V30 82 C 8.8087 3.1133 -4.1554 0
M  V30 83 C 10.9416 3.3186 -1.2646 0
M  V30 84 C 12.2217 3.0629 -1.7501 0
M  V30 85 H 10.7867 3.5268 -0.2149 0
M  V30 86 H 13.0664 3.0698 -1.0794 0
M  V30 87 H 13.3662 2.6162 -3.5159 0
M  V30 88 N 7.6808 3.2748 -3.5941 0
M  V30 89 H 8.9338 2.9843 -5.2298 0
M  V30 90 H 6.8843 3.2984 -4.2247 0
M  V30 91 Zn 6.3974 -5.8533 0.6761 0 CHG=2
M  V30 92 C 10.7995 -3.8401 1.1346 0
M  V30 93 C 9.6335 -3.1086 0.9593 0
M  V30 94 C 8.4201 -3.7823 0.8140 0
M  V30 95 H 9.6626 -2.0298 0.9385 0
M  V30 96 N 8.3512 -5.1220 0.8335 0
M  V30 97 C 7.1797 -3.0539 0.6269 0
M  V30 98 C 9.4671 -5.8172 0.9949 0
M  V30 99 C 10.7154 -5.2239 1.1520 0
M  V30 100 H 9.3678 -6.8930 1.0067 0
M  V30 101 H 11.5946 -5.8337 1.2863 0
M  V30 102 H 11.7507 -3.3454 1.2561 0
M  V30 103 N 6.0565 -3.6397 0.4665 0
M  V30 104 H 7.2694 -1.9651 0.5990 0
M  V30 105 C 5.5057 -5.9485 5.5357 0
M  V30 106 C 4.5522 -6.1682 4.5493 0
M  V30 107 C 4.9326 -6.0839 3.2119 0
M  V30 108 H 3.5342 -6.4109 4.8123 0
M  V30 109 N 6.1878 -5.7872 2.8376 0
M  V30 110 C 3.9845 -6.3422 2.1379 0
M  V30 111 C 7.0908 -5.5812 3.7824 0
M  V30 112 C 6.8009 -5.6519 5.1428 0
M  V30 113 H 8.0959 -5.3584 3.4535 0
M  V30 114 H 7.5787 -5.4868 5.8716 0
M  V30 115 H 5.2452 -6.0162 6.5808 0
M  V30 116 N 4.3543 -6.2515 0.9286 0
M  V30 117 H 2.9745 -6.6191 2.4397 0
M  V30 118 H 3.6478 -6.4710 0.2333 0
M  V30 119 C 7.5431 -10.5695 -0.0256 0
M  V30 120 C 7.3707 -9.6359 -1.0413 0
M  V30 121 C 7.0518 -8.3232 -0.7024 0
M  V30 122 H 7.4802 -9.9213 -2.0764 0
M  V30 123 N 6.9075 -7.9199 0.5739 0
M  V30 124 C 6.8579 -7.3078 -1.7241 0
M  V30 125 C 7.0782 -8.8142 1.5346 0
M  V30 126 C 7.3945 -10.1482 1.2862 0
M  V30 127 H 6.9654 -8.4605 2.5502 0
M  V30 128 H 7.5235 -10.8352 2.1077 0
M  V30 129 H 7.7892 -11.5950 -0.2558 0
M  V30 130 N 6.5120 -6.1297 -1.3937 0
M  V30 131 H 7.0208 -7.6173 -2.7557 0
M  V30 132 H 6.4072 -5.4808 -2.1682 0
M  V30 133 Zn -7.8135 -3.7825 -1.5059 0 CHG=2
M  V30 134 C -7.4055 -8.5715 -2.0653 0
M  V30 135 C -6.3379 -7.7312 -1.7773 0
M  V30 136 C -6.5690 -6.3637 -1.6276 0
M  V30 137 H -5.3408 -8.1300 -1.6737 0
M  V30 138 N -7.7984 -5.8357 -1.7559 0
M  V30 139 C -5.4812 -5.4473 -1.3384 0
M  V30 140 C -8.8139 -6.6421 -2.0301 0
M  V30 141 C -8.6696 -8.0159 -2.1927 0
M  V30 142 H -9.7866 -6.1789 -2.1213 0
M  V30 143 H -9.5287 -8.6295 -2.4137 0
M  V30 144 H -7.2552 -9.6333 -2.1877 0
M  V30 145 N -5.6651 -4.1848 -1.2624 0
M  V30 146 H -4.4925 -5.8934 -1.2243 0
M  V30 147 C -8.4311 -3.9107 3.4030 0
M  V30 148 C -7.9876 -2.8013 2.6943 0
M  V30 149 C -7.8834 -2.8837 1.3077 0
M  V30 150 H -7.7361 -1.8859 3.2077 0
M  V30 151 N -8.1788 -4.0040 0.6301 0
M  V30 152 C -7.4760 -1.7399 0.5075 0
M  V30 153 C -8.6024 -5.0561 1.3093 0
M  V30 154 C -8.7511 -5.0579 2.6954 0
M  V30 155 H -8.8445 -5.9390 0.7350 0
M  V30 156 H -9.1126 -5.9395 3.2006 0
M  V30 157 H -8.5310 -3.8763 4.4771 0
M  V30 158 N -7.4558 -1.8195 -0.7559 0
M  V30 159 H -7.2125 -0.8360 1.0608 0
M  V30 160 H -7.1748 -0.9846 -1.2591 0
M  V30 161 C -12.3579 -2.9134 -3.1369 0
M  V30 162 C -11.2234 -2.9558 -3.9392 0
M  V30 163 C -9.9872 -3.1976 -3.3452 0
M  V30 164 H -11.2970 -2.8056 -5.0055 0
M  V30 165 N -9.8474 -3.3961 -2.0217 0
M  V30 166 C -8.7664 -3.2506 -4.1363 0
M  V30 167 C -10.9333 -3.3590 -1.2657 0
M  V30 168 C -12.2074 -3.1189 -1.7745 0
M  V30 169 H -10.7909 -3.5324 -0.2079 0
M  V30 170 H -13.0599 -3.1030 -1.1139 0
M  V30 171 H -13.3306 -2.7302 -3.5674 0
M  V30 172 N -7.6452 -3.3939 -3.5567 0
M  V30 173 H -8.8787 -3.1574 -5.2158 0
M  V30 174 H -6.8414 -3.4389 -4.1768 0
M  V30 175 Zn -6.3996 5.8722 0.4327 0 CHG=2
M  V30 176 C -10.8072 3.8795 0.9257 0
M  V30 177 C -9.6410 3.1414 0.7825 0
M  V30 178 C -8.4257 3.8089 0.6241 0
M  V30 179 H -9.6712 2.0626 0.7963 0
M  V30 180 N -8.3553 5.1484 0.6009 0
M  V30 181 C -7.1849 3.0736 0.4696 0
M  V30 182 C -9.4714 5.8496 0.7318 0
M  V30 183 C -10.7215 5.2630 0.8990 0
M  V30 184 H -9.3709 6.9251 0.7096 0
M  V30 185 H -11.6009 5.8777 1.0074 0
M  V30 186 H -11.7600 3.3899 1.0562 0
M  V30 187 N -6.0599 3.6528 0.2981 0
M  V30 188 H -7.2756 1.9845 0.4768 0
M  V30 189 C -5.5370 6.1207 5.2920 0
M  V30 190 C -4.5772 6.3078 4.3050 0
M  V30 191 C -4.9497 6.1819 2.9686 0
M  V30 192 H -3.5605 6.5571 4.5663 0
M  V30 193 N -6.2032 5.8754 2.5962 0
M  V30 194 C -3.9948 6.4048 1.8927 0
M  V30 195 C -7.1122 5.7007 3.5416 0
M  V30 196 C -6.8304 5.8139 4.9008 0
M  V30 197 H -8.1157 5.4691 3.2137 0
M  V30 198 H -7.6128 5.6730 5.6297 0
M  V30 199 H -5.2827 6.2210 6.3360 0
M  V30 200 N -4.3575 6.2763 0.6847 0
M  V30 201 H -2.9863 6.6899 2.1917 0
M  V30 202 H -3.6465 6.4730 -0.0130 0
M  V30 203 C -7.5337 10.5646 -0.4282 0
M  V30 204 C -7.3563 9.5985 -1.4121 0
M  V30 205 C -7.0416 8.2970 -1.0290 0
M  V30 206 H -7.4588 9.8505 -2.4566 0
M  V30 207 N -6.9061 7.9349 0.2606 0
M  V30 208 C -6.8428 7.2488 -2.0161 0
M  V30 209 C -7.0815 8.8600 1.1908 0
M  V30 210 C -7.3940 10.1857 0.8975 0
M  V30 211 H -6.9757 8.5391 2.2180 0
M  V30 212 H -7.5272 10.8990 1.6955 0
M  V30 213 H -7.7766 11.5825 -0.6929 0
M  V30 214 N -6.5007 6.0816 -1.6457 0
M  V30 215 H -6.9988 7.5251 -3.0582 0
M  V30 216 H -6.3919 5.4079 -2.3982 0
M  V30 END ATOM
M  V30 BEGIN BOND
M  V30 1 2 1 2
M  V30 2 1 2 3
M  V30 3 2 3 4
M  V30 4 1 4 5
M  V30 5 2 5 6
M  V30 6 1 6 7
M  V30 7 1 7 8
M  V30 8 2 8 9
M  V30 9 1 9 10
M  V30 10 2 10 11
M  V30 11 1 11 12
M  V30 12 2 12 13
M  V30 13 2 7 14
M  V30 14 1 14 15
M  V30 15 2 15 16
M  V30 16 1 16 17
M  V30 17 2 17 18
M  V30 18 1 18 19
M  V30 19 2 19 20
M  V30 20 1 14 21
M  V30 21 2 21 22
M  V30 22 1 22 23
M  V30 23 2 23 24
M  V30 24 1 24 25
M  V30 25 2 25 26
M  V30 26 1 26 27
M  V30 27 2 27 28
M  V30 28 1 4 29
M  V30 29 2 29 30
M  V30 30 1 30 1
M  V30 31 1 22 5
M  V30 32 1 28 23
M  V30 33 1 13 8
M  V30 34 1 20 15
M  V30 35 1 2 31
M  V30 36 1 3 32
M  V30 37 1 6 33
M  V30 38 1 9 34
M  V30 39 1 10 35
M  V30 40 1 12 36
M  V30 41 1 13 37
M  V30 42 1 16 38
M  V30 43 1 17 39
M  V30 44 1 19 40
M  V30 45 1 20 41
M  V30 46 1 21 42
M  V30 47 1 24 43
M  V30 48 1 25 44
M  V30 49 1 27 45
M  V30 50 1 28 46
M  V30 51 1 29 47
M  V30 52 1 30 48
M  V30 53 1 50 60
M  V30 54 2 50 57
M  V30 55 1 51 50
M  V30 56 2 52 51
M  V30 57 1 52 54
M  V30 58 1 53 51
M  V30 59 2 54 56
M  V30 60 1 55 52
M  V30 61 1 56 57
M  V30 62 1 56 58
M  V30 63 1 57 59
M  V30 64 2 61 55
M  V30 65 1 62 55
M  V30 66 1 63 73
M  V30 67 2 63 70
M  V30 68 1 64 63
M  V30 69 2 65 64
M  V30 70 1 65 67
M  V30 71 1 66 64
M  V30 72 2 67 69
M  V30 73 1 68 65
M  V30 74 1 69 70
M  V30 75 1 69 71
M  V30 76 1 70 72
M  V30 77 2 74 68
M  V30 78 1 75 68
M  V30 79 1 76 74
M  V30 80 1 77 87
M  V30 81 2 77 84
M  V30 82 1 78 77
M  V30 83 2 79 78
M  V30 84 1 79 81
M  V30 85 1 80 78
M  V30 86 2 81 83
M  V30 87 1 82 79
M  V30 88 1 83 84
M  V30 89 1 83 85
M  V30 90 1 84 86
M  V30 91 2 88 82
M  V30 92 1 89 82
M  V30 93 1 90 88
M  V30 94 9 61 49
M  V30 95 9 54 49
M  V30 96 9 88 49
M  V30 97 9 81 49
M  V30 98 9 74 49
M  V30 99 9 67 49
M  V30 100 1 92 102
M  V30 101 2 92 99
M  V30 102 1 93 92
M  V30 103 2 94 93
M  V30 104 1 94 96
M  V30 105 1 95 93
M  V30 106 2 96 98
M  V30 107 1 97 94
M  V30 108 1 98 99
M  V30 109 1 98 100
M  V30 110 1 99 101
M  V30 111 2 103 97
M  V30 112 1 104 97
M  V30 113 1 105 115
M  V30 114 2 105 112
M  V30 115 1 106 105
M  V30 116 2 107 106
M  V30 117 1 107 109
M  V30 118 1 108 106
M  V30 119 2 109 111
M  V30 120 1 110 107
M  V30 121 1 111 112
M  V30 122 1 111 113
M  V30 123 1 112 114
M  V30 124 2 116 110
M  V30 125 1 117 110
M  V30 126 1 118 116
M  V30 127 1 119 129
M  V30 128 2 119 126
M  V30 129 1 120 119
M  V30 130 2 121 120
M  V30 131 1 121 123
M  V30 132 1 122 120
M  V30 133 2 123 125
M  V30 134 1 124 121
M  V30 135 1 125 126
M  V30 136 1 125 127
M  V30 137 1 126 128
M  V30 138 2 130 124
M  V30 139 1 131 124
M  V30 140 1 132 130
M  V30 141 9 103 91
M  V30 142 9 96 91
M  V30 143 9 130 91
M  V30 144 9 123 91
M  V30 145 9 116 91
M  V30 146 9 109 91
M  V30 147 1 134 144
M  V30 148 2 134 141
M  V30 149 1 135 134
M  V30 150 2 136 135
M  V30 151 1 136 138
M  V30 152 1 137 135
M  V30 153 2 138 140
M  V30 154 1 139 136
M  V30 155 1 140 141
M  V30 156 1 140 142
M  V30 157 1 141 143
M  V30 158 2 145 139
M  V30 159 1 146 139
M  V30 160 1 147 157
M  V30 161 2 147 154
M  V30 162 1 148 147
M  V30 163 2 149 148
M  V30 164 1 149 151
M  V30 165 1 150 148
M  V30 166 2 151 153
M  V30 167 1 152 149
M  V30 168 1 153 154
M  V30 169 1 153 155
M  V30 170 1 154 156
M  V30 171 2 158 152
M  V30 172 1 159 152
M  V30 173 1 160 158
M  V30 174 1 161 171
M  V30 175 2 161 168
M  V30 176 1 162 161
M  V30 177 2 163 162
M  V30 178 1 163 165
M  V30 179 1 164 162
M  V30 180 2 165 167
M  V30 181 1 166 163
M  V30 182 1 167 168
M  V30 183 1 167 169
M  V30 184 1 168 170
M  V30 185 2 172 166
M  V30 186 1 173 166
M  V30 187 1 174 172
M  V30 188 9 145 133
M  V30 189 9 138 133
M  V30 190 9 172 133
M  V30 191 9 165 133
M  V30 192 9 158 133
M  V30 193 9 151 133
M  V30 194 1 176 186
M  V30 195 2 176 183
M  V30 196 1 177 176
M  V30 197 2 178 177
M  V30 198 1 178 180
M  V30 199 1 179 177
M  V30 200 2 180 182
M  V30 201 1 181 178
M  V30 202 1 182 183
M  V30 203 1 182 184
M  V30 204 1 183 185
M  V30 205 2 187 181
M  V30 206 1 188 181
M  V30 207 1 189 199
M  V30 208 2 189 196
M  V30 209 1 190 189
M  V30 210 2 191 190
M  V30 211 1 191 193
M  V30 212 1 192 190
M  V30 213 2 193 195
M  V30 214 1 194 191
M  V30 215 1 195 196
M  V30 216 1 195 197
M  V30 217 1 196 198
M  V30 218 2 200 194
M  V30 219 1 201 194
M  V30 220 1 202 200
M  V30 221 1 203 213
M  V30 222 2 203 210
M  V30 223 1 204 203
M  V30 224 2 205 204
M  V30 225 1 205 207
M  V30 226 1 206 204
M  V30 227 2 207 209
M  V30 228 1 208 205
M  V30 229 1 209 210
M  V30 230 1 209 211
M  V30 231 1 210 212
M  V30 232 2 214 208
M  V30 233 1 215 208
M  V30 234 1 216 214
M  V30 235 9 187 175
M  V30 236 9 180 175
M  V30 237 9 214 175
M  V30 238 9 207 175
M  V30 239 9 200 175
M  V30 240 9 193 175
M  V30 241 1 11 61
M  V30 242 1 18 103
M  V30 243 1 26 145
M  V30 244 1 1 187
M  V30 END BOND
M  V30 END CTAB
M  END

$$$$
