
     RDKit          3D

  0  0  0  0  0  0  0  0  0  0999 V3000
M  V30 BEGIN CTAB
M  V30 COUNTS 236 268 0 0 0
M  V30 BEGIN ATOM
M  V30 1 C 6.1909 3.9240 -0.6136 0
M  V30 2 C 6.0439 2.7987 0.2028 0
M  V30 3 C 4.8534 2.0979 0.2318 0
M  V30 4 C 3.7717 2.4726 -0.5670 0
M  V30 5 C 2.4888 1.7476 -0.5377 0
M  V30 6 C 1.3071 2.4500 -0.6151 0
M  V30 7 C 0.0649 1.7915 -0.5980 0
M  V30 8 C -1.1210 2.5405 -0.6974 0
M  V30 9 C -2.3537 1.9276 -0.6986 0
M  V30 10 C -3.5753 2.7447 -0.8083 0
M  V30 11 C -4.7255 2.4575 -0.0717 0
M  V30 12 C -5.8576 3.2430 -0.1747 0
M  V30 13 C -5.8740 4.3664 -1.0066 0
M  V30 14 C -4.7164 4.6780 -1.7224 0
M  V30 15 C -3.6011 3.8712 -1.6373 0
M  V30 16 C -2.4037 0.5263 -0.5895 0
M  V30 17 C -1.2659 -0.2590 -0.4897 0
M  V30 18 C -1.3226 -1.7185 -0.3898 0
M  V30 19 C -2.5203 -2.4138 -0.3744 0
M  V30 20 C -2.5885 -3.8153 -0.2756 0
M  V30 21 C -3.8915 -4.5108 -0.2634 0
M  V30 22 C -4.1064 -5.6206 0.5573 0
M  V30 23 C -5.3033 -6.3107 0.5391 0
M  V30 24 C -6.3497 -5.9014 -0.2918 0
M  V30 25 C -6.1599 -4.7641 -1.0795 0
M  V30 26 C -4.9509 -4.0955 -1.0750 0
M  V30 27 C -1.4078 -4.5219 -0.1974 0
M  V30 28 C -0.1601 -3.8659 -0.2081 0
M  V30 29 C 1.0320 -4.6130 -0.1203 0
M  V30 30 C 2.2621 -3.9934 -0.0890 0
M  V30 31 C 3.5031 -4.7850 0.0336 0
M  V30 32 C 3.6712 -5.9667 -0.6907 0
M  V30 33 C 4.8073 -6.7388 -0.5509 0
M  V30 34 C 5.8334 -6.3542 0.3181 0
M  V30 35 C 5.6852 -5.1582 1.0219 0
M  V30 36 C 4.5400 -4.3961 0.8848 0
M  V30 37 C 2.3072 -2.5906 -0.1703 0
M  V30 38 C 1.1695 -1.8098 -0.2905 0
M  V30 39 C 1.2291 -0.3512 -0.4014 0
M  V30 40 C 2.4267 0.3466 -0.4270 0
M  V30 41 C 0.0085 0.3756 -0.4931 0
M  V30 42 C -0.1033 -2.4476 -0.2995 0
M  V30 43 C 3.9289 3.5996 -1.3810 0
M  V30 44 C 5.1025 4.3238 -1.3916 0
M  V30 45 H 6.8545 2.5031 0.8535 0
M  V30 46 H 4.7545 1.2570 0.9018 0
M  V30 47 H 1.3127 3.5284 -0.6715 0
M  V30 48 H -1.0436 3.6162 -0.7530 0
M  V30 49 H -4.7271 1.6187 0.6082 0
M  V30 50 H -6.7238 3.0148 0.4298 0
M  V30 51 H -4.7239 5.5320 -2.3827 0
M  V30 52 H -2.7382 4.1023 -2.2426 0
M  V30 53 H -3.3779 0.0651 -0.6139 0
M  V30 54 H -3.4553 -1.8783 -0.4167 0
M  V30 55 H -3.3265 -5.9467 1.2281 0
M  V30 56 H -5.4417 -7.1551 1.1982 0
M  V30 57 H -6.9548 -4.4457 -1.7378 0
M  V30 58 H -4.8140 -3.2565 -1.7409 0
M  V30 59 H -1.4192 -5.6004 -0.1482 0
M  V30 60 H 0.9613 -5.6878 -0.0448 0
M  V30 61 H 2.9059 -6.2808 -1.3837 0
M  V30 62 H 4.9179 -7.6335 -1.1456 0
M  V30 63 H 6.4523 -4.8601 1.7210 0
M  V30 64 H 4.4318 -3.5000 1.4780 0
M  V30 65 H 3.2823 -2.1301 -0.1623 0
M  V30 66 H 3.3628 -0.1870 -0.3915 0
M  V30 67 H 3.1231 3.8973 -2.0340 0
M  V30 68 H 5.2102 5.1798 -2.0405 0
M  V30 69 Zn 7.7471 6.7947 -0.6027 0 CHG=2
M  V30 70 C 12.1437 4.7821 -1.1101 0
M  V30 71 C 10.9638 4.0609 -1.0027 0
M  V30 72 C 9.7599 4.7466 -0.8407 0
M  V30 73 H 10.9711 2.9831 -1.0499 0
M  V30 74 N 9.7099 6.0869 -0.7886 0
M  V30 75 C 8.5015 4.0335 -0.7401 0
M  V30 76 C 10.8403 6.7710 -0.8888 0
M  V30 77 C 12.0814 6.1661 -1.0481 0
M  V30 78 H 10.7585 7.8473 -0.8347 0
M  V30 79 H 12.9733 6.7672 -1.1219 0
M  V30 80 H 13.0893 4.2786 -1.2390 0
M  V30 81 N 7.3825 4.6493 -0.6911 0
M  V30 82 H 8.5577 2.9445 -0.7509 0
M  V30 83 C 7.6361 6.9158 4.3308 0
M  V30 84 C 6.5304 7.1151 3.5141 0
M  V30 85 C 6.6929 7.0489 2.1325 0
M  V30 86 H 5.5621 7.3271 3.9402 0
M  V30 87 N 7.8777 6.7861 1.5603 0
M  V30 88 C 5.5790 7.2913 1.2250 0
M  V30 89 C 8.9271 6.5991 2.3431 0
M  V30 90 C 8.8588 6.6573 3.7325 0
M  V30 91 H 9.8689 6.4032 1.8504 0
M  V30 92 H 9.7477 6.5102 4.3250 0
M  V30 93 H 7.5453 6.9698 5.4047 0
M  V30 94 N 5.7600 7.2337 -0.0272 0
M  V30 95 H 4.6209 7.5288 1.6879 0
M  V30 96 H 4.9472 7.4323 -0.6022 0
M  V30 97 C 8.8314 11.5058 -1.4804 0
M  V30 98 C 8.4783 10.5805 -2.4554 0
M  V30 99 C 8.1917 9.2733 -2.0703 0
M  V30 100 H 8.4267 10.8676 -3.4944 0
M  V30 101 N 8.2459 8.8701 -0.7888 0
M  V30 102 C 7.8181 8.2620 -3.0488 0
M  V30 103 C 8.5859 9.7562 0.1329 0
M  V30 104 C 8.8862 11.0837 -0.1616 0
M  V30 105 H 8.6287 9.4000 1.1528 0
M  V30 106 H 9.1601 11.7647 0.6285 0
M  V30 107 H 9.0599 12.5265 -1.7465 0
M  V30 108 N 7.5118 7.0916 -2.6638 0
M  V30 109 H 7.8181 8.5712 -4.0935 0
M  V30 110 H 7.2732 6.4396 -3.4058 0
M  V30 111 Zn 9.0937 -6.7107 0.3504 0 CHG=2
M  V30 112 C 8.9239 -11.4815 1.0773 0
M  V30 113 C 7.8078 -10.6704 0.9254 0
M  V30 114 C 7.9842 -9.2981 0.7470 0
M  V30 115 H 6.8155 -11.0933 0.9451 0
M  V30 116 N 9.2056 -8.7393 0.7152 0
M  V30 117 C 6.8462 -8.4109 0.6019 0
M  V30 118 C 10.2677 -9.5181 0.8665 0
M  V30 119 C 10.1793 -10.8925 1.0517 0
M  V30 120 H 11.2310 -9.0281 0.8437 0
M  V30 121 H 11.0741 -11.4823 1.1715 0
M  V30 122 H 8.8170 -12.5465 1.2143 0
M  V30 123 N 6.9803 -7.1425 0.4936 0
M  V30 124 H 5.8633 -8.8818 0.6183 0
M  V30 125 C 9.7903 -5.0971 4.9556 0
M  V30 126 C 9.5617 -4.2733 3.8607 0
M  V30 127 C 9.3707 -4.8538 2.6094 0
M  V30 128 H 9.5345 -3.2005 3.9745 0
M  V30 129 N 9.3955 -6.1826 2.4231 0
M  V30 130 C 9.1323 -4.0430 1.4228 0
M  V30 131 C 9.6152 -6.9618 3.4678 0
M  V30 132 C 9.8194 -6.4673 4.7544 0
M  V30 133 H 9.6356 -8.0262 3.2827 0
M  V30 134 H 9.9994 -7.1454 5.5732 0
M  V30 135 H 9.9447 -4.6785 5.9382 0
M  V30 136 N 8.9260 -4.6026 0.3059 0
M  V30 137 H 9.1397 -2.9613 1.5665 0
M  V30 138 H 8.7639 -3.9880 -0.4851 0
M  V30 139 C 13.7511 -6.3121 -1.2810 0
M  V30 140 C 12.6483 -6.5629 -2.0879 0
M  V30 141 C 11.3894 -6.6531 -1.4984 0
M  V30 142 H 12.7625 -6.6875 -3.1537 0
M  V30 143 N 11.1992 -6.5057 -0.1768 0
M  V30 144 C 10.2009 -6.9177 -2.2983 0
M  V30 145 C 12.2556 -6.2747 0.5854 0
M  V30 146 C 13.5496 -6.1682 0.0825 0
M  V30 147 H 12.0719 -6.1737 1.6463 0
M  V30 148 H 14.3767 -5.9827 0.7492 0
M  V30 149 H 14.7399 -6.2370 -1.7072 0
M  V30 150 N 9.0585 -6.9390 -1.7468 0
M  V30 151 H 10.3599 -7.0874 -3.3629 0
M  V30 152 H 8.2800 -7.1368 -2.3690 0
M  V30 153 Zn -9.6118 -5.8982 -0.2765 0 CHG=2
M  V30 154 C -9.9971 -10.6928 -0.7755 0
M  V30 155 C -8.7916 -10.0133 -0.6659 0
M  V30 156 C -8.8044 -8.6265 -0.5160 0
M  V30 157 H -7.8556 -10.5486 -0.7000 0
M  V30 158 N -9.9525 -7.9295 -0.4780 0
M  V30 159 C -7.5687 -7.8718 -0.4140 0
M  V30 160 C -11.1008 -8.5841 -0.5799 0
M  V30 161 C -11.1761 -9.9637 -0.7282 0
M  V30 162 H -12.0008 -7.9865 -0.5369 0
M  V30 163 H -12.1356 -10.4498 -0.8040 0
M  V30 164 H -10.0167 -11.7652 -0.8943 0
M  V30 165 N -7.5652 -6.5935 -0.3690 0
M  V30 166 H -6.6452 -8.4506 -0.4187 0
M  V30 167 C -9.6375 -5.8581 4.6631 0
M  V30 168 C -9.2132 -4.7999 3.8696 0
M  V30 169 C -9.2793 -4.9281 2.4843 0
M  V30 170 H -8.8438 -3.8898 4.3162 0
M  V30 171 N -9.7254 -6.0434 1.8861 0
M  V30 172 C -8.8894 -3.8383 1.6022 0
M  V30 173 C -10.1322 -7.0455 2.6466 0
M  V30 174 C -10.1126 -6.9999 4.0389 0
M  V30 175 H -10.4995 -7.9239 2.1355 0
M  V30 176 H -10.4654 -7.8418 4.6131 0
M  V30 177 H -9.6039 -5.7887 5.7394 0
M  V30 178 N -8.9846 -3.9728 0.3461 0
M  V30 179 H -8.5363 -2.9274 2.0875 0
M  V30 180 H -8.7072 -3.1709 -0.2105 0
M  V30 181 C -14.2288 -4.4478 -1.2308 0
M  V30 182 C -13.2463 -4.6386 -2.1945 0
M  V30 183 C -11.9764 -5.0425 -1.7897 0
M  V30 184 H -13.4613 -4.4791 -3.2400 0
M  V30 185 N -11.6645 -5.2577 -0.5006 0
M  V30 186 C -10.9079 -5.2594 -2.7563 0
M  V30 187 C -12.6068 -5.0797 0.4104 0
M  V30 188 C -13.9015 -4.6739 0.0966 0
M  V30 189 H -12.3279 -5.2716 1.4370 0
M  V30 190 H -14.6335 -4.5467 0.8782 0
M  V30 191 H -15.2232 -4.1368 -1.5121 0
M  V30 192 N -9.7413 -5.5481 -2.3506 0
M  V30 193 H -11.1736 -5.1561 -3.8081 0
M  V30 194 H -9.0514 -5.7025 -3.0806 0
M  V30 195 Zn -7.2173 7.3384 -1.0959 0 CHG=2
M  V30 196 C -11.7165 5.6388 -1.8154 0
M  V30 197 C -10.5964 4.8373 -1.6513 0
M  V30 198 C -9.3573 5.4380 -1.4290 0
M  V30 199 H -10.6760 3.7625 -1.6997 0
M  V30 200 N -9.2162 6.7718 -1.3732 0
M  V30 201 C -8.1593 4.6389 -1.2626 0
M  V30 202 C -10.2900 7.5327 -1.5274 0
M  V30 203 C -11.5610 7.0151 -1.7477 0
M  V30 204 H -10.1363 8.6007 -1.4676 0
M  V30 205 H -12.4043 7.6767 -1.8631 0
M  V30 206 H -12.6873 5.2021 -1.9912 0
M  V30 207 N -7.0037 5.1745 -1.1561 0
M  V30 208 H -8.2918 3.5565 -1.2718 0
M  V30 209 C -7.3092 7.4275 3.8369 0
M  V30 210 C -6.1584 7.5551 3.0697 0
M  V30 211 C -6.2660 7.5113 1.6819 0
M  V30 212 H -5.1967 7.6951 3.5383 0
M  V30 213 N -7.4409 7.3373 1.0577 0
M  V30 214 C -5.1002 7.6813 0.8245 0
M  V30 215 C -8.5333 7.2184 1.7936 0
M  V30 216 C -8.5204 7.2604 3.1851 0
M  V30 217 H -9.4645 7.0934 1.2595 0
M  V30 218 H -9.4418 7.1713 3.7381 0
M  V30 219 H -7.2608 7.4662 4.9142 0
M  V30 220 N -5.2306 7.6420 -0.4345 0
M  V30 221 H -4.1489 7.8506 1.3297 0
M  V30 222 H -4.3822 7.7879 -0.9729 0
M  V30 223 C -7.9182 12.1098 -2.0211 0
M  V30 224 C -7.5897 11.1585 -2.9797 0
M  V30 225 C -7.4161 9.8351 -2.5825 0
M  V30 226 H -7.4706 11.4383 -4.0151 0
M  V30 227 N -7.5574 9.4408 -1.3049 0
M  V30 228 C -7.0717 8.7966 -3.5432 0
M  V30 229 C -7.8735 10.3517 -0.3991 0
M  V30 230 C -8.0628 11.6967 -0.7063 0
M  V30 231 H -7.9880 10.0022 0.6176 0
M  V30 232 H -8.3217 12.3980 0.0709 0
M  V30 233 H -8.0598 13.1435 -2.2969 0
M  V30 234 N -6.8675 7.6086 -3.1446 0
M  V30 235 H -7.0020 9.1018 -4.5867 0
M  V30 236 H -6.6419 6.9390 -3.8749 0
M  V30 END ATOM
M  V30 BEGIN BOND
M  V30 1 2 1 2
M  V30 2 1 2 3
M  V30 3 2 3 4
M  V30 4 1 4 5
M  V30 5 2 5 6
M  V30 6 1 6 7
M  V30 7 2 7 8
M  V30 8 1 8 9
M  V30 9 1 9 10
M  V30 10 2 10 11
M  V30 11 1 11 12
M  V30 12 2 12 13
M  V30 13 1 13 14
M  V30 14 2 14 15
M  V30 15 2 9 16
M  V30 16 1 16 17
M  V30 17 1 17 18
M  V30 18 2 18 19
M  V30 19 1 19 20
M  V30 20 1 20 21
M  V30 21 2 21 22
M  V30 22 1 22 23
M  V30 23 2 23 24
M  V30 24 1 24 25
M  V30 25 2 25 26
M  V30 26 2 20 27
M  V30 27 1 27 28
M  V30 28 1 28 29
M  V30 29 2 29 30
M  V30 30 1 30 31
M  V30 31 2 31 32
M  V30 32 1 32 33
M  V30 33 2 33 34
M  V30 34 1 34 35
M  V30 35 2 35 36
M  V30 36 1 30 37
M  V30 37 2 37 38
M  V30 38 1 38 39
M  V30 39 2 39 40
M  V30 40 1 39 41
M  V30 41 1 38 42
M  V30 42 1 4 43
M  V30 43 2 43 44
M  V30 44 1 44 1
M  V30 45 1 40 5
M  V30 46 1 41 7
M  V30 47 1 15 10
M  V30 48 2 41 17
M  V30 49 1 42 18
M  V30 50 1 26 21
M  V30 51 2 42 28
M  V30 52 1 36 31
M  V30 53 1 2 45
M  V30 54 1 3 46
M  V30 55 1 6 47
M  V30 56 1 8 48
M  V30 57 1 11 49
M  V30 58 1 12 50
M  V30 59 1 14 51
M  V30 60 1 15 52
M  V30 61 1 16 53
M  V30 62 1 19 54
M  V30 63 1 22 55
M  V30 64 1 23 56
M  V30 65 1 25 57
M  V30 66 1 26 58
M  V30 67 1 27 59
M  V30 68 1 29 60
M  V30 69 1 32 61
M  V30 70 1 33 62
M  V30 71 1 35 63
M  V30 72 1 36 64
M  V30 73 1 37 65
M  V30 74 1 40 66
M  V30 75 1 43 67
M  V30 76 1 44 68
M  V30 77 1 70 80
M  V30 78 2 70 77
M  V30 79 1 71 70
M  V30 80 2 72 71
M  V30 81 1 72 74
M  V30 82 1 73 71
M  V30 83 2 74 76
M  V30 84 1 75 72
M  V30 85 1 76 77
M  V30 86 1 76 78
M  V30 87 1 77 79
M  V30 88 2 81 75
M  V30 89 1 82 75
M  V30 90 1 83 93
M  V30 91 2 83 90
M  V30 92 1 84 83
M  V30 93 2 85 84
M  V30 94 1 85 87
M  V30 95 1 86 84
M  V30 96 2 87 89
M  V30 97 1 88 85
M  V30 98 1 89 90
M  V30 99 1 89 91
M  V30 100 1 90 92
M  V30 101 2 94 88
M  V30 102 1 95 88
M  V30 103 1 96 94
M  V30 104 1 97 107
M  V30 105 2 97 104
M  V30 106 1 98 97
M  V30 107 2 99 98
M  V30 108 1 99 101
M  V30 109 1 100 98
M  V30 110 2 101 103
M  V30 111 1 102 99
M  V30 112 1 103 104
M  V30 113 1 103 105
M  V30 114 1 104 106
M  V30 115 2 108 102
M  V30 116 1 109 102
M  V30 117 1 110 108
M  V30 118 9 81 69
M  V30 119 9 74 69
M  V30 120 9 94 69
M  V30 121 9 87 69
M  V30 122 9 108 69
M  V30 123 9 101 69
M  V30 124 1 112 122
M  V30 125 2 112 119
M  V30 126 1 113 112
M  V30 127 2 114 113
M  V30 128 1 114 116
M  V30 129 1 115 113
M  V30 130 2 116 118
M  V30 131 1 117 114
M  V30 132 1 118 119
M  V30 133 1 118 120
M  V30 134 1 119 121
M  V30 135 2 123 117
M  V30 136 1 124 117
M  V30 137 1 125 135
M  V30 138 2 125 132
M  V30 139 1 126 125
M  V30 140 2 127 126
M  V30 141 1 127 129
M  V30 142 1 128 126
M  V30 143 2 129 131
M  V30 144 1 130 127
M  V30 145 1 131 132
M  V30 146 1 131 133
M  V30 147 1 132 134
M  V30 148 2 136 130
M  V30 149 1 137 130
M  V30 150 1 138 136
M  V30 151 1 139 149
M  V30 152 2 139 146
M  V30 153 1 140 139
M  V30 154 2 141 140
M  V30 155 1 141 143
M  V30 156 1 142 140
M  V30 157 2 143 145
M  V30 158 1 144 141
M  V30 159 1 145 146
M  V30 160 1 145 147
M  V30 161 1 146 148
M  V30 162 2 150 144
M  V30 163 1 151 144
M  V30 164 1 152 150
M  V30 165 9 123 111
M  V30 166 9 116 111
M  V30 167 9 136 111
M  V30 168 9 129 111
M  V30 169 9 150 111
M  V30 170 9 143 111
M  V30 171 1 154 164
M  V30 172 2 154 161
M  V30 173 1 155 154
M  V30 174 2 156 155
M  V30 175 1 156 158
M  V30 176 1 157 155
M  V30 177 2 158 160
M  V30 178 1 159 156
M  V30 179 1 160 161
M  V30 180 1 160 162
M  V30 181 1 161 163
M  V30 182 2 165 159
M  V30 183 1 166 159
M  V30 184 1 167 177
M  V30 185 2 167 174
M  V30 186 1 168 167
M  V30 187 2 169 168
M  V30 188 1 169 171
M  V30 189 1 170 168
M  V30 190 2 171 173
M  V30 191 1 172 169
M  V30 192 1 173 174
M  V30 193 1 173 175
M  V30 194 1 174 176
M  V30 195 2 178 172
M  V30 196 1 179 172
M  V30 197 1 180 178
M  V30 198 1 181 191
M  V30 199 2 181 188
M  V30 200 1 182 181
M  V30 201 2 183 182
M  V30 202 1 183 185
M  V30 203 1 184 182
M  V30 204 2 185 187
M  V30 205 1 186 183
M  V30 206 1 187 188
M  V30 207 1 187 189
M  V30 208 1 188 190
M  V30 209 2 192 186
M  V30 210 1 193 186
M  V30 211 1 194 192
M  V30 212 9 165 153
M  V30 213 9 158 153
M  V30 214 9 192 153
M  V30 215 9 185 153
M  V30 216 9 178 153
M  V30 217 9 171 153
M  V30 218 1 196 206
M  V30 219 2 196 203
M  V30 220 1 197 196
M  V30 221 2 198 197
M  V30 222 1 198 200
M  V30 223 1 199 197
M  V30 224 2 200 202
M  V30 225 1 201 198
M  V30 226 1 202 203
M  V30 227 1 202 204
M  V30 228 1 203 205
M  V30 229 2 207 201
M  V30 230 1 208 201
M  V30 231 1 209 219
M  V30 232 2 209 216
M  V30 233 1 210 209
M  V30 234 2 211 210
M  V30 235 1 211 213
M  V30 236 1 212 210
M  V30 237 2 213 215
M  V30 238 1 214 211
M  V30 239 1 215 216
M  V30 240 1 215 217
M  V30 241 1 216 218
M  V30 242 2 220 214
M  V30 243 1 221 214
M  V30 244 1 222 220
M  V30 245 1 223 233
M  V30 246 2 223 230
M  V30 247 1 224 223
M  V30 248 2 225 224
M  V30 249 1 225 227
M  V30 250 1 226 224
M  V30 251 2 227 229
M  V30 252 1 228 225
M  V30 253 1 229 230
M  V30 254 1 229 231
M  V30 255 1 230 232
M  V30 256 2 234 228
M  V30 257 1 235 228
M  V30 258 1 236 234
M  V30 259 9 207 195
M  V30 260 9 200 195
M  V30 261 9 234 195
M  V30 262 9 227 195
M  V30 263 9 220 195
M  V30 264 9 213 195
M  V30 265 1 1 81
M  V30 266 1 34 123
M  V30 267 1 24 165
M  V30 268 1 13 207
M  V30 END BOND
M  V30 END CTAB
M  END

$$$$
