
     RDKit          3D

  0  0  0  0  0  0  0  0  0  0999 V3000
M  V30 BEGIN CTAB
M  V30 COUNTS 230 259 0 0 0
M  V30 BEGIN ATOM
M  V30 1 C -6.0220 3.5517 0.5206 0
M  V30 2 C -6.5046 2.5873 -0.3710 0
M  V30 3 C -5.7921 1.4385 -0.6302 0
M  V30 4 C -4.5716 1.1791 0.0113 0
M  V30 5 N -3.8707 0.0014 -0.2551 0
M  V30 6 C -4.5944 -1.1701 -0.4914 0
M  V30 7 C -4.1828 -2.1151 -1.4384 0
M  V30 8 C -4.9130 -3.2629 -1.6581 0
M  V30 9 C -6.0949 -3.5243 -0.9480 0
M  V30 10 C -6.5141 -2.5701 -0.0157 0
M  V30 11 C -5.7782 -1.4290 0.2146 0
M  V30 12 C -2.4563 -0.0061 -0.2844 0
M  V30 13 C -1.7385 1.1070 -0.7242 0
M  V30 14 C -0.3566 1.0996 -0.7395 0
M  V30 15 C 0.3791 -0.0178 -0.3350 0
M  V30 16 C 1.8548 -0.0211 -0.3612 0
M  V30 17 C 2.5684 0.7097 -1.3159 0
M  V30 18 C 3.9503 0.7150 -1.3419 0
M  V30 19 C 4.6845 -0.0216 -0.4127 0
M  V30 20 N 6.0996 -0.0206 -0.4396 0
M  V30 21 C 6.7848 1.1823 -0.6308 0
M  V30 22 C 7.9833 1.2268 -1.3548 0
M  V30 23 C 8.6714 2.4077 -1.5233 0
M  V30 24 C 8.1965 3.6122 -0.9825 0
M  V30 25 C 6.9788 3.5726 -0.2959 0
M  V30 26 C 6.2917 2.3896 -0.1199 0
M  V30 27 C 6.7982 -1.2188 -0.2797 0
M  V30 28 C 8.0430 -1.2524 0.3633 0
M  V30 29 C 8.7480 -2.4283 0.4956 0
M  V30 30 C 8.2411 -3.6385 0.0002 0
M  V30 31 C 6.9774 -3.6114 -0.6000 0
M  V30 32 C 6.2755 -2.4335 -0.7434 0
M  V30 33 C 3.9842 -0.7584 0.5422 0
M  V30 34 C 2.6019 -0.7530 0.5663 0
M  V30 35 C -0.3506 -1.1298 0.0941 0
M  V30 36 C -1.7325 -1.1259 0.1273 0
M  V30 37 C -4.1001 2.1320 0.9223 0
M  V30 38 C -4.8043 3.2919 1.1655 0
M  V30 39 H -7.4228 2.7855 -0.9024 0
M  V30 40 H -6.1643 0.7331 -1.3581 0
M  V30 41 H -3.2903 -1.9320 -2.0171 0
M  V30 42 H -4.5899 -3.9440 -2.4309 0
M  V30 43 H -7.4024 -2.7646 0.5650 0
M  V30 44 H -6.1046 -0.7272 0.9680 0
M  V30 45 H -2.2671 1.9849 -1.0648 0
M  V30 46 H 0.1583 1.9901 -1.0657 0
M  V30 47 H 2.0366 1.2617 -2.0755 0
M  V30 48 H 4.4701 1.2818 -2.1002 0
M  V30 49 H 8.3675 0.3234 -1.8036 0
M  V30 50 H 9.5673 2.4049 -2.1257 0
M  V30 51 H 6.5995 4.4797 0.1472 0
M  V30 52 H 5.3693 2.3878 0.4413 0
M  V30 53 H 8.4532 -0.3426 0.7747 0
M  V30 54 H 9.6856 -2.4154 1.0305 0
M  V30 55 H 6.5777 -4.5277 -1.0068 0
M  V30 56 H 5.3192 -2.4397 -1.2445 0
M  V30 57 H 4.5318 -1.3262 1.2803 0
M  V30 58 H 2.0974 -1.3069 1.3432 0
M  V30 59 H 0.1681 -2.0252 0.4004 0
M  V30 60 H -2.2565 -2.0007 0.4833 0
M  V30 61 H -3.1774 1.9483 1.4513 0
M  V30 62 H -4.4303 3.9854 1.9036 0
M  V30 63 Zn 8.2716 6.8728 -1.5382 0 CHG=2
M  V30 64 C 13.0943 7.0974 -1.5154 0
M  V30 65 C 12.3645 5.9331 -1.3261 0
M  V30 66 C 10.9695 5.9966 -1.3140 0
M  V30 67 H 12.8665 4.9874 -1.1941 0
M  V30 68 N 10.3138 7.1582 -1.4770 0
M  V30 69 C 10.1749 4.8025 -1.1184 0
M  V30 70 C 11.0174 8.2696 -1.6439 0
M  V30 71 C 12.4061 8.2917 -1.6723 0
M  V30 72 H 10.4529 9.1844 -1.7558 0
M  V30 73 H 12.9313 9.2228 -1.8141 0
M  V30 74 H 14.1729 7.0752 -1.5376 0
M  V30 75 N 8.8908 4.8161 -1.1186 0
M  V30 76 H 10.7366 3.8844 -0.9490 0
M  V30 77 C 7.1878 8.2325 3.0702 0
M  V30 78 C 6.2449 7.8636 2.1192 0
M  V30 79 C 6.6800 7.4860 0.8514 0
M  V30 80 H 5.1917 7.8698 2.3547 0
M  V30 81 N 7.9793 7.4623 0.5152 0
M  V30 82 C 5.7399 7.0919 -0.1895 0
M  V30 83 C 8.8720 7.8195 1.4222 0
M  V30 84 C 8.5263 8.2126 2.7134 0
M  V30 85 H 9.9083 7.7997 1.1164 0
M  V30 86 H 9.2928 8.4991 3.4158 0
M  V30 87 H 6.8833 8.5315 4.0613 0
M  V30 88 N 6.1735 6.6813 -1.3067 0
M  V30 89 H 4.6803 7.1650 0.0596 0
M  V30 90 H 5.4726 6.4221 -1.9935 0
M  V30 91 C 7.3502 11.1940 -3.7880 0
M  V30 92 C 7.5751 9.9897 -4.4434 0
M  V30 93 C 7.8324 8.8490 -3.6863 0
M  V30 94 H 7.5518 9.9363 -5.5209 0
M  V30 95 N 7.8705 8.8677 -2.3436 0
M  V30 96 C 8.0793 7.5628 -4.3235 0
M  V30 97 C 7.6644 10.0201 -1.7277 0
M  V30 98 C 7.4000 11.2088 -2.4032 0
M  V30 99 H 7.7166 10.0057 -0.6476 0
M  V30 100 H 7.2431 12.1221 -1.8518 0
M  V30 101 H 7.1473 12.0953 -4.3459 0
M  V30 102 N 8.2469 6.5237 -3.6147 0
M  V30 103 H 8.1074 7.5593 -5.4129 0
M  V30 104 H 8.4230 5.6682 -4.1336 0
M  V30 105 Zn -8.9099 5.0542 0.8863 0 CHG=2
M  V30 106 C -6.9588 9.4544 1.3764 0
M  V30 107 C -6.2223 8.2902 1.2193 0
M  V30 108 C -6.8919 7.0723 1.0860 0
M  V30 109 H -5.1441 8.3200 1.1979 0
M  V30 110 N -8.2335 6.9989 1.1040 0
M  V30 111 C -6.1605 5.8372 0.9015 0
M  V30 112 C -8.9325 8.1155 1.2530 0
M  V30 113 C -8.3434 9.3656 1.3944 0
M  V30 114 H -10.0083 8.0120 1.2662 0
M  V30 115 H -8.9565 10.2441 1.5158 0
M  V30 116 H -6.4670 10.4088 1.4825 0
M  V30 117 N -6.7582 4.7172 0.7157 0
M  V30 118 H -5.0742 5.9187 0.8847 0
M  V30 119 C -9.0070 3.9847 5.7152 0
M  V30 120 C -9.2168 3.0593 4.7008 0
M  V30 121 C -9.1739 3.4893 3.3767 0
M  V30 122 H -9.4170 2.0247 4.9330 0
M  V30 123 N -8.9249 4.7649 3.0417 0
M  V30 124 C -9.4269 2.5748 2.2746 0
M  V30 125 C -8.7320 5.6419 4.0118 0
M  V30 126 C -8.7663 5.3026 5.3627 0
M  V30 127 H -8.5506 6.6641 3.7122 0
M  V30 128 H -8.6131 6.0597 6.1152 0
M  V30 129 H -9.0395 3.6847 6.7512 0
M  V30 130 N -9.3673 2.9878 1.0786 0
M  V30 131 H -9.6752 1.5483 2.5484 0
M  V30 132 H -9.5777 2.3047 0.3585 0
M  V30 133 C -13.6370 6.2142 0.1162 0
M  V30 134 C -12.6773 6.0994 -0.8825 0
M  V30 135 C -11.3754 5.7540 -0.5285 0
M  V30 136 H -12.9340 6.2744 -1.9161 0
M  V30 137 N -11.0077 5.5316 0.7458 0
M  V30 138 C -10.3322 5.6138 -1.5339 0
M  V30 139 C -11.9263 5.6476 1.6909 0
M  V30 140 C -13.2523 5.9830 1.4273 0
M  V30 141 H -11.5990 5.4721 2.7063 0
M  V30 142 H -13.9610 6.0655 2.2361 0
M  V30 143 H -14.6546 6.4804 -0.1256 0
M  V30 144 N -9.1744 5.2196 -1.1929 0
M  V30 145 H -10.6083 5.8560 -2.5597 0
M  V30 146 H -8.4967 5.1592 -1.9476 0
M  V30 147 Zn 8.2706 -6.8994 0.4006 0 CHG=2
M  V30 148 C 13.0763 -7.2608 0.0179 0
M  V30 149 C 12.3763 -6.0654 -0.0529 0
M  V30 150 C 10.9855 -6.0807 0.0720 0
M  V30 151 H 12.8985 -5.1334 -0.2027 0
M  V30 152 N 10.3060 -7.2253 0.2557 0
M  V30 153 C 10.2183 -4.8548 -0.0032 0
M  V30 154 C 10.9806 -8.3651 0.3206 0
M  V30 155 C 12.3635 -8.4357 0.2097 0
M  V30 156 H 10.3964 -9.2617 0.4733 0
M  V30 157 H 12.8652 -9.3879 0.2731 0
M  V30 158 H 14.1514 -7.2772 -0.0738 0
M  V30 159 N 8.9372 -4.8438 0.0778 0
M  V30 160 H 10.7926 -3.9441 -0.1683 0
M  V30 161 C 8.1361 -6.4864 5.3222 0
M  V30 162 C 7.0536 -6.2542 4.4834 0
M  V30 163 C 7.2177 -6.4199 3.1104 0
M  V30 164 H 6.0979 -5.9562 4.8862 0
M  V30 165 N 8.3884 -6.7841 2.5645 0
M  V30 166 C 6.1085 -6.2346 2.1870 0
M  V30 167 C 9.4134 -7.0095 3.3686 0
M  V30 168 C 9.3369 -6.8787 4.7534 0
M  V30 169 H 10.3382 -7.3170 2.9018 0
M  V30 170 H 10.2007 -7.0852 5.3650 0
M  V30 171 H 8.0407 -6.3715 6.3909 0
M  V30 172 N 6.2881 -6.3824 0.9415 0
M  V30 173 H 5.1450 -5.9835 2.6319 0
M  V30 174 H 5.4654 -6.2630 0.3589 0
M  V30 175 C 6.9951 -11.6377 -0.1575 0
M  V30 176 C 7.1619 -10.7356 -1.2009 0
M  V30 177 C 7.5190 -9.4226 -0.9043 0
M  V30 178 H 7.0181 -11.0442 -2.2250 0
M  V30 179 N 7.7127 -8.9941 0.3544 0
M  V30 180 C 7.7041 -8.4344 -1.9581 0
M  V30 181 C 7.5587 -9.8606 1.3418 0
M  V30 182 C 7.1988 -11.1904 1.1382 0
M  V30 183 H 7.7332 -9.4885 2.3418 0
M  V30 184 H 7.0885 -11.8565 1.9791 0
M  V30 185 H 6.7186 -12.6622 -0.3541 0
M  V30 186 N 7.9437 -7.2257 -1.6557 0
M  V30 187 H 7.6201 -8.7945 -2.9831 0
M  V30 188 H 8.0743 -6.5974 -2.4435 0
M  V30 189 Zn -9.0017 -5.0522 -1.2924 0 CHG=2
M  V30 190 C -7.0058 -9.3772 -2.0929 0
M  V30 191 C -6.2844 -8.2100 -1.8932 0
M  V30 192 C -6.9690 -7.0221 -1.6294 0
M  V30 193 H -5.2068 -8.2140 -1.9429 0
M  V30 194 N -8.3104 -6.9792 -1.5643 0
M  V30 195 C -6.2504 -5.7886 -1.3961 0
M  V30 196 C -8.9942 -8.1004 -1.7454 0
M  V30 197 C -8.3897 -9.3227 -2.0113 0
M  V30 198 H -10.0697 -8.0259 -1.6714 0
M  V30 199 H -8.9911 -10.2065 -2.1508 0
M  V30 200 H -6.5027 -10.3080 -2.3042 0
M  V30 201 N -6.8480 -4.6825 -1.1346 0
M  V30 202 H -5.1634 -5.8578 -1.4235 0
M  V30 203 C -10.2292 -5.3749 3.4700 0
M  V30 204 C -10.4704 -4.2642 2.6713 0
M  V30 205 C -10.0355 -4.2789 1.3482 0
M  V30 206 H -10.9916 -3.4055 3.0658 0
M  V30 207 N -9.3910 -5.3290 0.8146 0
M  V30 208 C -10.2591 -3.1465 0.4608 0
M  V30 209 C -9.1661 -6.3840 1.5783 0
M  V30 210 C -9.5637 -6.4545 2.9121 0
M  V30 211 H -8.6525 -7.2150 1.1165 0
M  V30 212 H -9.3605 -7.3407 3.4920 0
M  V30 213 H -10.5575 -5.3968 4.4978 0
M  V30 214 N -9.7797 -3.1609 -0.7120 0
M  V30 215 H -10.8413 -2.3186 0.8682 0
M  V30 216 H -9.9756 -2.3504 -1.2902 0
M  V30 217 C -13.5260 -5.9740 -3.0977 0
M  V30 218 C -12.4451 -5.5307 -3.8502 0
M  V30 219 C -11.2234 -5.3192 -3.2150 0
M  V30 220 H -12.5482 -5.3512 -4.9093 0
M  V30 221 N -11.0473 -5.5304 -1.8993 0
M  V30 222 C -10.0621 -4.8494 -3.9561 0
M  V30 223 C -12.0795 -5.9609 -1.1922 0
M  V30 224 C -13.3372 -6.1951 -1.7427 0
M  V30 225 H -11.9047 -6.1344 -0.1391 0
M  V30 226 H -14.1443 -6.5471 -1.1199 0
M  V30 227 H -14.4864 -6.1448 -3.5597 0
M  V30 228 N -8.9782 -4.5933 -3.3462 0
M  V30 229 H -10.1879 -4.7338 -5.0322 0
M  V30 230 H -8.2144 -4.2764 -3.9362 0
M  V30 END ATOM
M  V30 BEGIN BOND
M  V30 1 2 1 2
M  V30 2 1 2 3
M  V30 3 2 3 4
M  V30 4 1 4 5
M  V30 5 1 5 6
M  V30 6 2 6 7
M  V30 7 1 7 8
M  V30 8 2 8 9
M  V30 9 1 9 10
M  V30 10 2 10 11
M  V30 11 1 5 12
M  V30 12 2 12 13
M  V30 13 1 13 14
M  V30 14 2 14 15
M  V30 15 1 15 16
M  V30 16 2 16 17
M  V30 17 1 17 18
M  V30 18 2 18 19
M  V30 19 1 19 20
M  V30 20 1 20 21
M  V30 21 2 21 22
M  V30 22 1 22 23
M  V30 23 2 23 24
M  V30 24 1 24 25
M  V30 25 2 25 26
M  V30 26 1 20 27
M  V30 27 2 27 28
M  V30 28 1 28 29
M  V30 29 2 29 30
M  V30 30 1 30 31
M  V30 31 2 31 32
M  V30 32 1 19 33
M  V30 33 2 33 34
M  V30 34 1 15 35
M  V30 35 2 35 36
M  V30 36 1 4 37
M  V30 37 2 37 38
M  V30 38 1 38 1
M  V30 39 1 11 6
M  V30 40 1 36 12
M  V30 41 1 34 16
M  V30 42 1 26 21
M  V30 43 1 32 27
M  V30 44 1 2 39
M  V30 45 1 3 40
M  V30 46 1 7 41
M  V30 47 1 8 42
M  V30 48 1 10 43
M  V30 49 1 11 44
M  V30 50 1 13 45
M  V30 51 1 14 46
M  V30 52 1 17 47
M  V30 53 1 18 48
M  V30 54 1 22 49
M  V30 55 1 23 50
M  V30 56 1 25 51
M  V30 57 1 26 52
M  V30 58 1 28 53
M  V30 59 1 29 54
M  V30 60 1 31 55
M  V30 61 1 32 56
M  V30 62 1 33 57
M  V30 63 1 34 58
M  V30 64 1 35 59
M  V30 65 1 36 60
M  V30 66 1 37 61
M  V30 67 1 38 62
M  V30 68 1 64 74
M  V30 69 2 64 71
M  V30 70 1 65 64
M  V30 71 2 66 65
M  V30 72 1 66 68
M  V30 73 1 67 65
M  V30 74 2 68 70
M  V30 75 1 69 66
M  V30 76 1 70 71
M  V30 77 1 70 72
M  V30 78 1 71 73
M  V30 79 2 75 69
M  V30 80 1 76 69
M  V30 81 1 77 87
M  V30 82 2 77 84
M  V30 83 1 78 77
M  V30 84 2 79 78
M  V30 85 1 79 81
M  V30 86 1 80 78
M  V30 87 2 81 83
M  V30 88 1 82 79
M  V30 89 1 83 84
M  V30 90 1 83 85
M  V30 91 1 84 86
M  V30 92 2 88 82
M  V30 93 1 89 82
M  V30 94 1 90 88
M  V30 95 1 91 101
M  V30 96 2 91 98
M  V30 97 1 92 91
M  V30 98 2 93 92
M  V30 99 1 93 95
M  V30 100 1 94 92
M  V30 101 2 95 97
M  V30 102 1 96 93
M  V30 103 1 97 98
M  V30 104 1 97 99
M  V30 105 1 98 100
M  V30 106 2 102 96
M  V30 107 1 103 96
M  V30 108 1 104 102
M  V30 109 9 75 63
M  V30 110 9 68 63
M  V30 111 9 88 63
M  V30 112 9 81 63
M  V30 113 9 102 63
M  V30 114 9 95 63
M  V30 115 1 106 116
M  V30 116 2 106 113
M  V30 117 1 107 106
M  V30 118 2 108 107
M  V30 119 1 108 110
M  V30 120 1 109 107
M  V30 121 2 110 112
M  V30 122 1 111 108
M  V30 123 1 112 113
M  V30 124 1 112 114
M  V30 125 1 113 115
M  V30 126 2 117 111
M  V30 127 1 118 111
M  V30 128 1 119 129
M  V30 129 2 119 126
M  V30 130 1 120 119
M  V30 131 2 121 120
M  V30 132 1 121 123
M  V30 133 1 122 120
M  V30 134 2 123 125
M  V30 135 1 124 121
M  V30 136 1 125 126
M  V30 137 1 125 127
M  V30 138 1 126 128
M  V30 139 2 130 124
M  V30 140 1 131 124
M  V30 141 1 132 130
M  V30 142 1 133 143
M  V30 143 2 133 140
M  V30 144 1 134 133
M  V30 145 2 135 134
M  V30 146 1 135 137
M  V30 147 1 136 134
M  V30 148 2 137 139
M  V30 149 1 138 135
M  V30 150 1 139 140
M  V30 151 1 139 141
M  V30 152 1 140 142
M  V30 153 2 144 138
M  V30 154 1 145 138
M  V30 155 1 146 144
M  V30 156 9 117 105
M  V30 157 9 110 105
M  V30 158 9 130 105
M  V30 159 9 123 105
M  V30 160 9 144 105
M  V30 161 9 137 105
M  V30 162 1 148 158
M  V30 163 2 148 155
M  V30 164 1 149 148
M  V30 165 2 150 149
M  V30 166 1 150 152
M  V30 167 1 151 149
M  V30 168 2 152 154
M  V30 169 1 153 150
M  V30 170 1 154 155
M  V30 171 1 154 156
M  V30 172 1 155 157
M  V30 173 2 159 153
M  V30 174 1 160 153
M  V30 175 1 161 171
M  V30 176 2 161 168
M  V30 177 1 162 161
M  V30 178 2 163 162
M  V30 179 1 163 165
M  V30 180 1 164 162
M  V30 181 2 165 167
M  V30 182 1 166 163
M  V30 183 1 167 168
M  V30 184 1 167 169
M  V30 185 1 168 170
M  V30 186 2 172 166
M  V30 187 1 173 166
M  V30 188 1 174 172
M  V30 189 1 175 185
M  V30 190 2 175 182
M  V30 191 1 176 175
M  V30 192 2 177 176
M  V30 193 1 177 179
M  V30 194 1 178 176
M  V30 195 2 179 181
M  V30 196 1 180 177
M  V30 197 1 181 182
M  V30 198 1 181 183
M  V30 199 1 182 184
M  V30 200 2 186 180
M  V30 201 1 187 180
M  V30 202 1 188 186
M  V30 203 9 159 147
M  V30 204 9 152 147
M  V30 205 9 186 147
M  V30 206 9 179 147
M  V30 207 9 172 147
M  V30 208 9 165 147
M  V30 209 1 190 200
M  V30 210 2 190 197
M  V30 211 1 191 190
M  V30 212 2 192 191
M  V30 213 1 192 194
M  V30 214 1 193 191
M  V30 215 2 194 196
M  V30 216 1 195 192
M  V30 217 1 196 197
M  V30 218 1 196 198
M  V30 219 1 197 199
M  V30 220 2 201 195
M  V30 221 1 202 195
M  V30 222 1 203 213
M  V30 223 2 203 210
M  V30 224 1 204 203
M  V30 225 2 205 204
M  V30 226 1 205 207
M  V30 227 1 206 204
M  V30 228 2 207 209
M  V30 229 1 208 205
M  V30 230 1 209 210
M  V30 231 1 209 211
M  V30 232 1 210 212
M  V30 233 2 214 208
M  V30 234 1 215 208
M  V30 235 1 216 214
M  V30 236 1 217 227
M  V30 237 2 217 224
M  V30 238 1 218 217
M  V30 239 2 219 218
M  V30 240 1 219 221
M  V30 241 1 220 218
M  V30 242 2 221 223
M  V30 243 1 222 219
M  V30 244 1 223 224
M  V30 245 1 223 225
M  V30 246 1 224 226
M  V30 247 2 228 222
M  V30 248 1 229 222
M  V30 249 1 230 228
M  V30 250 9 201 189
M  V30 251 9 194 189
M  V30 252 9 228 189
M  V30 253 9 221 189
M  V30 254 9 214 189
M  V30 255 9 207 189
M  V30 256 1 24 75
M  V30 257 1 30 159
M  V30 258 1 9 201
M  V30 259 1 1 117
M  V30 END BOND
M  V30 END CTAB
M  END

$$$$
