
     RDKit          3D

  0  0  0  0  0  0  0  0  0  0999 V3000
M  V30 BEGIN CTAB
M  V30 COUNTS 220 248 0 0 0
M  V30 BEGIN ATOM
M  V30 1 C 5.6920 3.8852 -0.4296 0
M  V30 2 C 6.1259 2.7702 -1.1529 0
M  V30 3 C 5.3816 1.6092 -1.1898 0
M  V30 4 C 4.1806 1.4918 -0.4775 0
M  V30 5 N 3.4326 0.3026 -0.5100 0
M  V30 6 C 4.1024 -0.9255 -0.5752 0
M  V30 7 C 5.3170 -1.1174 0.0952 0
M  V30 8 C 6.0020 -2.3103 0.0088 0
M  V30 9 C 5.4993 -3.3820 -0.7410 0
M  V30 10 C 4.2660 -3.2044 -1.3766 0
M  V30 11 C 3.5888 -2.0049 -1.3053 0
M  V30 12 C 2.0241 0.3346 -0.4666 0
M  V30 13 C 1.3053 -0.6540 0.2127 0
M  V30 14 C -0.0757 -0.6388 0.2543 0
M  V30 15 C -0.8072 0.3672 -0.3816 0
M  V30 16 N -2.2196 0.3822 -0.3351 0
M  V30 17 C -2.9527 -0.8060 -0.3662 0
M  V30 18 C -2.5383 -1.9113 -1.1194 0
M  V30 19 C -3.2866 -3.0684 -1.1580 0
M  V30 20 C -4.4943 -3.1856 -0.4525 0
M  V30 21 C -4.9121 -2.0769 0.2914 0
M  V30 22 C -4.1573 -0.9258 0.3438 0
M  V30 23 C -2.9134 1.5991 -0.2586 0
M  V30 24 C -4.1314 1.7659 -0.9310 0
M  V30 25 C -4.8435 2.9417 -0.8374 0
M  V30 26 C -4.3580 4.0218 -0.0940 0
M  V30 27 C -3.1360 3.8597 0.5706 0
M  V30 28 C -2.4337 2.6735 0.4965 0
M  V30 29 C -0.0906 1.3591 -1.0560 0
M  V30 30 C 1.2914 1.3439 -1.0972 0
M  V30 31 C 3.7662 2.5933 0.2776 0
M  V30 32 C 4.4986 3.7634 0.2941 0
M  V30 33 H 7.0345 2.8459 -1.7300 0
M  V30 34 H 5.7235 0.7820 -1.7932 0
M  V30 35 H 5.7204 -0.3178 0.6981 0
M  V30 36 H 6.9184 -2.4306 0.5670 0
M  V30 37 H 3.8728 -4.0084 -1.9795 0
M  V30 38 H 2.6598 -1.8847 -1.8420 0
M  V30 39 H 1.8395 -1.4356 0.7322 0
M  V30 40 H -0.5956 -1.4081 0.8056 0
M  V30 41 H -1.6306 -1.8449 -1.6999 0
M  V30 42 H -2.9586 -3.8768 -1.7944 0
M  V30 43 H -5.8203 -2.1515 0.8690 0
M  V30 44 H -4.4902 -0.1007 0.9559 0
M  V30 45 H -4.5087 0.9629 -1.5462 0
M  V30 46 H -5.7657 3.0601 -1.3850 0
M  V30 47 H -2.7557 4.6563 1.1925 0
M  V30 48 H -1.5070 2.5691 1.0400 0
M  V30 49 H -0.6222 2.1438 -1.5724 0
M  V30 50 H 1.8096 2.1166 -1.6442 0
M  V30 51 H 2.8636 2.5251 0.8661 0
M  V30 52 H 4.1642 4.5806 0.9159 0
M  V30 53 Zn -7.2625 5.5714 0.1698 0 CHG=2
M  V30 54 C -5.3010 9.9876 -0.1129 0
M  V30 55 C -4.5670 8.8103 -0.1406 0
M  V30 56 C -5.2341 7.5887 -0.0403 0
M  V30 57 H -3.4932 8.8352 -0.2416 0
M  V30 58 N -6.5707 7.5210 0.0801 0
M  V30 59 C -4.5048 6.3374 -0.0779 0
M  V30 60 C -7.2671 8.6486 0.1061 0
M  V30 61 C -6.6796 9.9053 0.0150 0
M  V30 62 H -8.3387 8.5511 0.2089 0
M  V30 63 H -7.2904 10.7934 0.0437 0
M  V30 64 H -4.8109 10.9460 -0.1891 0
M  V30 65 N -5.0991 5.2033 -0.0488 0
M  V30 66 H -3.4215 6.4158 -0.1719 0
M  V30 67 C -7.1105 5.1474 5.0937 0
M  V30 68 C -7.3490 4.0933 4.2209 0
M  V30 69 C -7.3736 4.3446 2.8511 0
M  V30 70 H -7.5209 3.0965 4.5967 0
M  V30 71 N -7.1622 5.5675 2.3395 0
M  V30 72 C -7.6624 3.2897 1.8927 0
M  V30 73 C -6.9417 6.5676 3.1754 0
M  V30 74 C -6.9095 6.4098 4.5597 0
M  V30 75 H -6.7922 7.5432 2.7355 0
M  V30 76 H -6.7371 7.2617 5.1980 0
M  V30 77 H -7.0919 4.9871 6.1607 0
M  V30 78 N -7.6651 3.5408 0.6510 0
M  V30 79 H -7.8818 2.3063 2.3114 0
M  V30 80 H -7.9005 2.7676 0.0378 0
M  V30 81 C -12.0285 6.5714 -0.5269 0
M  V30 82 C -11.1108 6.3387 -1.5447 0
M  V30 83 C -9.7887 6.0584 -1.2083 0
M  V30 84 H -11.4155 6.3737 -2.5795 0
M  V30 85 N -9.3615 6.0099 0.0665 0
M  V30 86 C -8.7885 5.7988 -2.2330 0
M  V30 87 C -10.2405 6.2383 1.0292 0
M  V30 88 C -11.5828 6.5192 0.7844 0
M  V30 89 H -9.8666 6.2026 2.0431 0
M  V30 90 H -12.2571 6.6985 1.6069 0
M  V30 91 H -13.0605 6.7907 -0.7548 0
M  V30 92 N -7.6111 5.4602 -1.8971 0
M  V30 93 H -9.1118 5.9050 -3.2680 0
M  V30 94 H -6.9677 5.3105 -2.6693 0
M  V30 95 Zn 8.6358 5.4804 -0.3839 0 CHG=2
M  V30 96 C 6.5647 9.8541 -0.6692 0
M  V30 97 C 5.8541 8.6632 -0.6287 0
M  V30 98 C 6.5495 7.4564 -0.5366 0
M  V30 99 H 4.7760 8.6664 -0.6699 0
M  V30 100 N 7.8907 7.4168 -0.4891 0
M  V30 101 C 5.8393 6.1936 -0.4994 0
M  V30 102 C 8.5652 8.5569 -0.5282 0
M  V30 103 C 7.9494 9.8004 -0.6159 0
M  V30 104 H 9.6423 8.4818 -0.4823 0
M  V30 105 H 8.5433 10.7001 -0.6417 0
M  V30 106 H 6.0524 10.8012 -0.7405 0
M  V30 107 N 6.4411 5.0639 -0.4627 0
M  V30 108 H 4.7513 6.2614 -0.5405 0
M  V30 109 C 8.8415 5.2270 4.5418 0
M  V30 110 C 9.1007 4.1643 3.6854 0
M  V30 111 C 8.9997 4.3664 2.3110 0
M  V30 112 H 9.3841 3.1991 4.0759 0
M  V30 113 N 8.6508 5.5497 1.7816 0
M  V30 114 C 9.2971 3.3010 1.3643 0
M  V30 115 C 8.4125 6.5590 2.6019 0
M  V30 116 C 8.4961 6.4491 3.9879 0
M  V30 117 H 8.1519 7.5036 2.1459 0
M  V30 118 H 8.3022 7.3072 4.6117 0
M  V30 119 H 8.9174 5.1046 5.6113 0
M  V30 120 N 9.1588 3.5010 0.1205 0
M  V30 121 H 9.6454 2.3594 1.7895 0
M  V30 122 H 9.4133 2.7256 -0.4836 0
M  V30 123 C 13.3397 6.5481 -1.3620 0
M  V30 124 C 12.3773 6.2527 -2.3204 0
M  V30 125 C 11.0753 5.9816 -1.9062 0
M  V30 126 H 12.6329 6.2303 -3.3687 0
M  V30 127 N 10.7098 5.9993 -0.6114 0
M  V30 128 C 10.0303 5.6613 -2.8661 0
M  V30 129 C 11.6304 6.2911 0.2935 0
M  V30 130 C 12.9563 6.5698 -0.0305 0
M  V30 131 H 11.3051 6.3113 1.3245 0
M  V30 132 H 13.6663 6.8016 0.7477 0
M  V30 133 H 14.3584 6.7584 -1.6504 0
M  V30 134 N 8.8726 5.3308 -2.4595 0
M  V30 135 H 10.3028 5.7190 -3.9193 0
M  V30 136 H 8.1975 5.1354 -3.1932 0
M  V30 137 Zn 5.4757 -6.6687 -0.8730 0 CHG=2
M  V30 138 C 10.2713 -7.0364 -1.3604 0
M  V30 139 C 9.5914 -5.8337 -1.2316 0
M  V30 140 C 8.2025 -5.8465 -1.0907 0
M  V30 141 H 10.1285 -4.8981 -1.2414 0
M  V30 142 N 7.5046 -6.9949 -1.0806 0
M  V30 143 C 7.4547 -4.6129 -0.9589 0
M  V30 144 C 8.1593 -8.1410 -1.2054 0
M  V30 145 C 9.5401 -8.2152 -1.3454 0
M  V30 146 H 7.5617 -9.0415 -1.1876 0
M  V30 147 H 10.0256 -9.1735 -1.4395 0
M  V30 148 H 11.3448 -7.0553 -1.4694 0
M  V30 149 N 6.1753 -4.5953 -0.8731 0
M  V30 150 H 8.0422 -3.6950 -0.9724 0
M  V30 151 C 5.3788 -7.0018 4.0618 0
M  V30 152 C 4.3108 -6.5795 3.2804 0
M  V30 153 C 4.4627 -6.5387 1.8964 0
M  V30 154 H 3.3744 -6.2946 3.7350 0
M  V30 155 N 5.6098 -6.8788 1.2876 0
M  V30 156 C 3.3644 -6.1515 1.0254 0
M  V30 157 C 6.6214 -7.2834 2.0365 0
M  V30 158 C 6.5544 -7.3667 3.4260 0
M  V30 159 H 7.5268 -7.5647 1.5182 0
M  V30 160 H 7.4055 -7.7153 3.9892 0
M  V30 161 H 5.2910 -7.0518 5.1362 0
M  V30 162 N 3.5248 -6.1332 -0.2314 0
M  V30 163 H 2.4230 -5.9025 1.5176 0
M  V30 164 H 2.7110 -5.8762 -0.7803 0
M  V30 165 C 4.1493 -11.2387 -2.1353 0
M  V30 166 C 4.3304 -10.1921 -3.0315 0
M  V30 167 C 4.6872 -8.9390 -2.5396 0
M  V30 168 H 4.1994 -10.3455 -4.0918 0
M  V30 169 N 4.8675 -8.7024 -1.2284 0
M  V30 170 C 4.8874 -7.8062 -3.4325 0
M  V30 171 C 4.6975 -9.7052 -0.3821 0
M  V30 172 C 4.3363 -10.9885 -0.7851 0
M  V30 173 H 4.8595 -9.4862 0.6643 0
M  V30 174 H 4.2139 -11.7713 -0.0534 0
M  V30 175 H 3.8751 -12.2222 -2.4852 0
M  V30 176 N 5.1366 -6.6587 -2.9500 0
M  V30 177 H 4.8057 -8.0066 -4.5003 0
M  V30 178 H 5.2784 -5.9220 -3.6355 0
M  V30 179 Zn -7.4603 -4.7194 -0.6145 0 CHG=2
M  V30 180 C -5.4947 -9.1351 -0.6257 0
M  V30 181 C -4.7610 -7.9589 -0.6070 0
M  V30 182 C -5.4319 -6.7348 -0.5657 0
M  V30 183 H -3.6826 -7.9837 -0.6261 0
M  V30 184 N -6.7728 -6.6675 -0.5448 0
M  V30 185 C -4.6965 -5.4894 -0.5227 0
M  V30 186 C -7.4697 -7.7952 -0.5527 0
M  V30 187 C -6.8790 -9.0522 -0.5920 0
M  V30 188 H -8.5452 -7.6976 -0.5210 0
M  V30 189 H -7.4905 -9.9402 -0.5960 0
M  V30 190 H -5.0020 -10.0942 -0.6624 0
M  V30 191 N -5.2715 -4.3432 -0.4654 0
M  V30 192 H -3.6104 -5.5833 -0.5087 0
M  V30 193 C -8.7227 -4.2334 4.1224 0
M  V30 194 C -8.9413 -3.2687 3.1468 0
M  V30 195 C -8.4967 -3.5099 1.8490 0
M  V30 196 H -9.4536 -2.3497 3.3870 0
M  V30 197 N -7.8628 -4.6427 1.5047 0
M  V30 198 C -8.7000 -2.5403 0.7819 0
M  V30 199 C -7.6613 -5.5587 2.4362 0
M  V30 200 C -8.0703 -5.4005 3.7589 0
M  V30 201 H -7.1583 -6.4631 2.1247 0
M  V30 202 H -7.8870 -6.1809 4.4802 0
M  V30 203 H -9.0592 -4.0790 5.1361 0
M  V30 204 N -8.2067 -2.7536 -0.3658 0
M  V30 205 H -9.2814 -1.6533 1.0365 0
M  V30 206 H -8.3930 -2.0519 -1.0747 0
M  V30 207 C -11.9476 -5.9356 -2.3135 0
M  V30 208 C -10.8528 -5.6226 -3.1106 0
M  V30 209 C -9.6425 -5.3039 -2.4986 0
M  V30 210 H -10.9372 -5.6246 -4.1866 0
M  V30 211 N -9.4898 -5.2894 -1.1624 0
M  V30 212 C -8.4682 -4.9638 -3.2869 0
M  V30 213 C -10.5354 -5.5971 -0.4116 0
M  V30 214 C -11.7831 -5.9246 -0.9375 0
M  V30 215 H -10.3801 -5.5901 0.6587 0
M  V30 216 H -12.6016 -6.1685 -0.2787 0
M  V30 217 H -12.8998 -6.1841 -2.7572 0
M  V30 218 N -7.3904 -4.6161 -2.7104 0
M  V30 219 H -8.5771 -5.0232 -4.3693 0
M  V30 220 H -6.6187 -4.3995 -3.3343 0
M  V30 END ATOM
M  V30 BEGIN BOND
M  V30 1 2 1 2
M  V30 2 1 2 3
M  V30 3 2 3 4
M  V30 4 1 4 5
M  V30 5 1 5 6
M  V30 6 2 6 7
M  V30 7 1 7 8
M  V30 8 2 8 9
M  V30 9 1 9 10
M  V30 10 2 10 11
M  V30 11 1 5 12
M  V30 12 2 12 13
M  V30 13 1 13 14
M  V30 14 2 14 15
M  V30 15 1 15 16
M  V30 16 1 16 17
M  V30 17 2 17 18
M  V30 18 1 18 19
M  V30 19 2 19 20
M  V30 20 1 20 21
M  V30 21 2 21 22
M  V30 22 1 16 23
M  V30 23 2 23 24
M  V30 24 1 24 25
M  V30 25 2 25 26
M  V30 26 1 26 27
M  V30 27 2 27 28
M  V30 28 1 15 29
M  V30 29 2 29 30
M  V30 30 1 4 31
M  V30 31 2 31 32
M  V30 32 1 32 1
M  V30 33 1 11 6
M  V30 34 1 30 12
M  V30 35 1 22 17
M  V30 36 1 28 23
M  V30 37 1 2 33
M  V30 38 1 3 34
M  V30 39 1 7 35
M  V30 40 1 8 36
M  V30 41 1 10 37
M  V30 42 1 11 38
M  V30 43 1 13 39
M  V30 44 1 14 40
M  V30 45 1 18 41
M  V30 46 1 19 42
M  V30 47 1 21 43
M  V30 48 1 22 44
M  V30 49 1 24 45
M  V30 50 1 25 46
M  V30 51 1 27 47
M  V30 52 1 28 48
M  V30 53 1 29 49
M  V30 54 1 30 50
M  V30 55 1 31 51
M  V30 56 1 32 52
M  V30 57 1 54 64
M  V30 58 2 54 61
M  V30 59 1 55 54
M  V30 60 2 56 55
M  V30 61 1 56 58
M  V30 62 1 57 55
M  V30 63 2 58 60
M  V30 64 1 59 56
M  V30 65 1 60 61
M  V30 66 1 60 62
M  V30 67 1 61 63
M  V30 68 2 65 59
M  V30 69 1 66 59
M  V30 70 1 67 77
M  V30 71 2 67 74
M  V30 72 1 68 67
M  V30 73 2 69 68
M  V30 74 1 69 71
M  V30 75 1 70 68
M  V30 76 2 71 73
M  V30 77 1 72 69
M  V30 78 1 73 74
M  V30 79 1 73 75
M  V30 80 1 74 76
M  V30 81 2 78 72
M  V30 82 1 79 72
M  V30 83 1 80 78
M  V30 84 1 81 91
M  V30 85 2 81 88
M  V30 86 1 82 81
M  V30 87 2 83 82
M  V30 88 1 83 85
M  V30 89 1 84 82
M  V30 90 2 85 87
M  V30 91 1 86 83
M  V30 92 1 87 88
M  V30 93 1 87 89
M  V30 94 1 88 90
M  V30 95 2 92 86
M  V30 96 1 93 86
M  V30 97 1 94 92
M  V30 98 9 65 53
M  V30 99 9 58 53
M  V30 100 9 78 53
M  V30 101 9 71 53
M  V30 102 9 92 53
M  V30 103 9 85 53
M  V30 104 1 96 106
M  V30 105 2 96 103
M  V30 106 1 97 96
M  V30 107 2 98 97
M  V30 108 1 98 100
M  V30 109 1 99 97
M  V30 110 2 100 102
M  V30 111 1 101 98
M  V30 112 1 102 103
M  V30 113 1 102 104
M  V30 114 1 103 105
M  V30 115 2 107 101
M  V30 116 1 108 101
M  V30 117 1 109 119
M  V30 118 2 109 116
M  V30 119 1 110 109
M  V30 120 2 111 110
M  V30 121 1 111 113
M  V30 122 1 112 110
M  V30 123 2 113 115
M  V30 124 1 114 111
M  V30 125 1 115 116
M  V30 126 1 115 117
M  V30 127 1 116 118
M  V30 128 2 120 114
M  V30 129 1 121 114
M  V30 130 1 122 120
M  V30 131 1 123 133
M  V30 132 2 123 130
M  V30 133 1 124 123
M  V30 134 2 125 124
M  V30 135 1 125 127
M  V30 136 1 126 124
M  V30 137 2 127 129
M  V30 138 1 128 125
M  V30 139 1 129 130
M  V30 140 1 129 131
M  V30 141 1 130 132
M  V30 142 2 134 128
M  V30 143 1 135 128
M  V30 144 1 136 134
M  V30 145 9 107 95
M  V30 146 9 100 95
M  V30 147 9 134 95
M  V30 148 9 127 95
M  V30 149 9 120 95
M  V30 150 9 113 95
M  V30 151 1 138 148
M  V30 152 2 138 145
M  V30 153 1 139 138
M  V30 154 2 140 139
M  V30 155 1 140 142
M  V30 156 1 141 139
M  V30 157 2 142 144
M  V30 158 1 143 140
M  V30 159 1 144 145
M  V30 160 1 144 146
M  V30 161 1 145 147
M  V30 162 2 149 143
M  V30 163 1 150 143
M  V30 164 1 151 161
M  V30 165 2 151 158
M  V30 166 1 152 151
M  V30 167 2 153 152
M  V30 168 1 153 155
M  V30 169 1 154 152
M  V30 170 2 155 157
M  V30 171 1 156 153
M  V30 172 1 157 158
M  V30 173 1 157 159
M  V30 174 1 158 160
M  V30 175 2 162 156
M  V30 176 1 163 156
M  V30 177 1 164 162
M  V30 178 1 165 175
M  V30 179 2 165 172
M  V30 180 1 166 165
M  V30 181 2 167 166
M  V30 182 1 167 169
M  V30 183 1 168 166
M  V30 184 2 169 171
M  V30 185 1 170 167
M  V30 186 1 171 172
M  V30 187 1 171 173
M  V30 188 1 172 174
M  V30 189 2 176 170
M  V30 190 1 177 170
M  V30 191 1 178 176
M  V30 192 9 149 137
M  V30 193 9 142 137
M  V30 194 9 176 137
M  V30 195 9 169 137
M  V30 196 9 162 137
M  V30 197 9 155 137
M  V30 198 1 180 190
M  V30 199 2 180 187
M  V30 200 1 181 180
M  V30 201 2 182 181
M  V30 202 1 182 184
M  V30 203 1 183 181
M  V30 204 2 184 186
M  V30 205 1 185 182
M  V30 206 1 186 187
M  V30 207 1 186 188
M  V30 208 1 187 189
M  V30 209 2 191 185
M  V30 210 1 192 185
M  V30 211 1 193 203
M  V30 212 2 193 200
M  V30 213 1 194 193
M  V30 214 2 195 194
M  V30 215 1 195 197
M  V30 216 1 196 194
M  V30 217 2 197 199
M  V30 218 1 198 195
M  V30 219 1 199 200
M  V30 220 1 199 201
M  V30 221 1 200 202
M  V30 222 2 204 198
M  V30 223 1 205 198
M  V30 224 1 206 204
M  V30 225 1 207 217
M  V30 226 2 207 214
M  V30 227 1 208 207
M  V30 228 2 209 208
M  V30 229 1 209 211
M  V30 230 1 210 208
M  V30 231 2 211 213
M  V30 232 1 212 209
M  V30 233 1 213 214
M  V30 234 1 213 215
M  V30 235 1 214 216
M  V30 236 2 218 212
M  V30 237 1 219 212
M  V30 238 1 220 218
M  V30 239 9 191 179
M  V30 240 9 184 179
M  V30 241 9 218 179
M  V30 242 9 211 179
M  V30 243 9 204 179
M  V30 244 9 197 179
M  V30 245 1 1 107
M  V30 246 1 9 149
M  V30 247 1 20 191
M  V30 248 1 26 65
M  V30 END BOND
M  V30 END CTAB
M  END

$$$$
