474
m6_l1
Pd   -6.364400    5.149300   -7.003900
Pd    3.480000    9.473000    3.812600
Pd    6.368200   -5.166700    7.003100
Pd   -3.471600   -9.465100   -3.810700
Pd    7.990800   -0.011700   -7.238800
Pd   -7.981800    0.010800    7.247100
 C   -5.375600    7.066700   -4.967100
 N   -5.699100    6.940000   -6.276000
 C   -5.558100    8.006800   -7.098100
 C   -5.088200    9.232300   -6.635600
 C   -4.734300    9.393400   -5.276000
 C   -4.219700   10.676600   -4.751400
 C   -4.650000   11.906500   -5.323300
 C   -4.191000   13.144600   -4.857400
 C   -3.274400   13.118800   -3.806100
 O   -2.696500   14.220200   -3.215300
 C   -1.853900   13.746600   -2.234600
 C   -1.061400   14.527900   -1.393400
 C   -0.261100   13.845700   -0.469000
 C   -0.256300   12.425700   -0.375400
 C    0.608600   11.749100    0.614800
 C    0.246700   10.510000    1.193200
 C    1.086600    9.894100    2.115300
 N    2.266600   10.445800    2.486600
 C    2.638600   11.633600    1.953000
 C    1.841800   12.303600    1.029400
 C   -1.078200   11.664700   -1.237100
 C   -1.877700   12.328100   -2.176100
 C   -2.814900   11.914500   -3.210600
 C   -3.295900   10.686600   -3.682000
 C   -4.894800    8.262000   -4.442600
 H   -5.516900    6.185800   -4.333500
 H   -5.820000    7.860400   -8.150400
 H   -4.973300   10.048800   -7.353100
 H   -5.386700   11.895300   -6.132500
 H   -4.537900   14.086100   -5.292700
 H   -1.068600   15.620100   -1.450300
 H    0.355200   14.432900    0.218800
 H   -0.703200   10.026400    0.951700
 H    0.815900    8.941400    2.580800
 H    3.602700   12.041700    2.272300
 H    2.207700   13.247000    0.616200
 H   -1.069600   10.571100   -1.199800
 H   -2.931900    9.751200   -3.246400
 H   -4.673800    8.308700   -3.373100
 C   -6.189500    2.283500   -7.745800
 N   -7.020300    3.353000   -7.725200
 C   -8.292700    3.210600   -8.166300
 C   -8.772800    1.993000   -8.639200
 C   -7.932200    0.856000   -8.665900
 C   -8.411300   -0.457300   -9.148100
 C   -9.415600   -0.527700  -10.153900
 C   -9.898000   -1.749100  -10.639500
 C   -9.354200   -2.905800  -10.080600
 O   -9.699800   -4.197600  -10.408800
 C   -8.933100   -5.025200   -9.619000
 C   -8.971000   -6.419700   -9.622100
 C   -8.115800   -7.074900   -8.727700
 C   -7.238200   -6.363800   -7.862200
 C   -6.353300   -7.099000   -6.933300
 C   -5.090300   -6.588900   -6.552100
 C   -4.284300   -7.299100   -5.668400
 N   -4.673300   -8.484900   -5.142600
 C   -5.875800   -9.000200   -5.491700
 C   -6.726900   -8.343700   -6.375600
 C   -7.219100   -4.951100   -7.890500
 C   -8.076000   -4.277000   -8.769500
 C   -8.353600   -2.880600   -9.073500
 C   -7.875600   -1.648900   -8.609200
 C   -6.608400    1.038000   -8.201900
 H   -5.166000    2.443500   -7.392900
 H   -8.935300    4.095500   -8.123400
 H   -9.816600    1.934900   -8.958200
 H   -9.807300    0.396600  -10.589500
 H  -10.660100   -1.794500  -11.422700
 H   -9.632600   -6.973800  -10.294000
 H   -8.107400   -8.169300   -8.722100
 H   -4.712000   -5.647900   -6.959900
 H   -3.299300   -6.925100   -5.373100
 H   -6.156800   -9.955400   -5.038000
 H   -7.695200   -8.798800   -6.599000
 H   -6.571200   -4.385300   -7.214000
 H   -7.121600   -1.617000   -7.816900
 H   -5.884800    0.218800   -8.215400
 C   -3.553200    5.192600   -7.939200
 N   -4.838600    5.144000   -8.363200
 C   -5.095900    5.090200   -9.691700
 C   -4.074100    5.084700  -10.636700
 C   -2.721800    5.129700  -10.225300
 C   -1.608200    5.117600  -11.198000
 C   -1.775900    5.698800  -12.486100
 C   -0.745500    5.717100  -13.434000
 C    0.461500    5.125400  -13.060700
 O    1.589700    5.033700  -13.844800
 C    2.539700    4.375300  -13.096200
 C    3.838700    4.076100  -13.507400
 C    4.652200    3.404600  -12.586600
 C    4.183700    3.030300  -11.296100
 C    5.076800    2.315800  -10.358800
 C    4.572300    1.387900   -9.417800
 C    5.435600    0.733900   -8.545000
 N    6.770600    0.961200   -8.557900
 C    7.283300    1.843500   -9.448100
 C    6.475200    2.525500  -10.353000
 C    2.860500    3.345300  -10.912800
 C    2.035100    4.027200  -11.815400
 C    0.668500    4.528200  -11.789200
 C   -0.370900    4.529700  -10.850900
 C   -2.486300    5.185000   -8.831600
 H   -3.388300    5.247300   -6.858600
 H   -6.146900    5.041000   -9.992700
 H   -4.344600    5.016500  -11.693600
 H   -2.726600    6.176900  -12.741700
 H   -0.877800    6.178900  -14.416500
 H    4.201700    4.347300  -14.502900
 H    5.669100    3.135800  -12.889100
 H    3.507300    1.145600   -9.374700
 H    5.063600    0.003500   -7.819900
 H    8.364900    2.005800   -9.417900
 H    6.944800    3.242400  -11.031300
 H    2.490500    3.091900   -9.914700
 H   -0.230200    4.053300   -9.875900
 H   -1.472000    5.250800   -8.429500
 C   -7.993600    4.120500   -4.750800
 N   -7.875200    5.146200   -5.627500
 C   -8.758300    6.171200   -5.569500
 C   -9.785400    6.202300   -4.630800
 C   -9.930100    5.150400   -3.696700
 C  -10.999400    5.155000   -2.675400
 C  -12.247200    5.782500   -2.947900
 C  -13.286100    5.811600   -2.009600
 C  -13.038000    5.202100   -0.779500
 O  -13.918700    5.132800    0.276800
 C  -13.272000    4.457600    1.287900
 C  -13.801600    4.171700    2.546400
 C  -12.970200    3.482900    3.437900
 C  -11.652500    3.078600    3.084200
 C  -10.810700    2.351900    4.058800
 C   -9.845500    1.404900    3.643600
 C   -9.062300    0.743000    4.583500
 N   -9.188100    0.979000    5.911100
 C  -10.106000    1.877900    6.339100
 C  -10.924800    2.569600    5.451600
 C  -11.149600    3.377600    1.797900
 C  -11.961400    4.076700    0.896100
 C  -11.807100    4.567700   -0.465700
 C  -10.784300    4.539300   -1.421700
 C   -8.994700    4.093100   -3.785400
 H   -7.269100    3.304700   -4.838500
 H   -8.622600    6.984500   -6.288900
 H  -10.451400    7.068900   -4.618400
 H  -12.420300    6.233400   -3.929900
 H  -14.246900    6.284500   -2.231900
 H  -14.818400    4.466600    2.821100
 H  -13.365800    3.224700    4.425100
 H   -9.713900    1.154700    2.587700
 H   -8.319400   -0.001000    4.280600
 H  -10.169200    2.047200    7.418300
 H  -11.629500    3.300400    5.856800
 H  -10.129500    3.099400    1.515700
 H   -9.822900    4.074800   -1.182300
 H   -9.053100    3.226400   -3.121900
 C    5.222500    7.280900    4.787900
 N    4.685600    8.476900    5.128100
 C    4.949400    8.997300    6.350000
 C    5.759800    8.337300    7.269100
 C    6.329800    7.084300    6.945800
 C    7.188800    6.348700    7.898300
 C    8.006400    7.060600    8.820100
 C    8.841600    6.405600    9.733400
 C    8.828100    5.010900    9.707800
 O    9.567300    4.183700   10.523600
 C    9.247500    2.891500   10.171200
 C    9.775900    1.735100   10.745300
 C    9.319600    0.513400   10.235600
 C    8.355900    0.442800    9.191000
 C    7.894800   -0.870600    8.692200
 C    6.584300   -1.053500    8.192500
 C    6.178500   -2.299900    7.727300
 N    7.011000   -3.368400    7.729400
 C    8.271800   -3.224400    8.201800
 C    8.738000   -2.006000    8.687200
 C    7.838300    1.633800    8.633900
 C    8.291100    2.865800    9.122000
 C    8.021200    4.262100    8.810800
 C    7.201800    4.935700    7.896400
 C    6.035700    6.567400    5.662400
 H    4.996600    6.902500    3.786200
 H    4.487800    9.960200    6.589400
 H    5.916700    8.797000    8.248300
 H    8.012800    8.154800    8.800300
 H    9.478400    6.960100   10.428600
 H   10.505500    1.780900   11.558800
 H    9.697600   -0.411300   10.682600
 H    5.860000   -0.234900    8.186700
 H    5.164000   -2.461400    7.350000
 H    8.915700   -4.109000    8.174800
 H    9.773000   -1.946100    9.033300
 H    7.116700    1.601000    7.811800
 H    6.559200    4.369800    7.214700
 H    6.460400    5.619400    5.322100
 C    5.375200   -7.071800    4.962100
 N    5.714300   -6.958000    6.268400
 C    5.600900   -8.037300    7.078400
 C    5.143800   -9.263900    6.605200
 C    4.774200   -9.412000    5.248300
 C    4.271200  -10.694700    4.711400
 C    4.730600  -11.927300    5.253800
 C    4.285100  -13.164200    4.771600
 C    3.353200  -13.134700    3.733900
 O    2.786900  -14.234400    3.128400
 C    1.920900  -13.756600    2.170100
 C    1.139400  -14.534700    1.315700
 C    0.326100  -13.848300    0.405600
 C    0.282500  -12.426900    0.353200
 C   -0.599400  -11.744900   -0.618300
 C   -1.179700  -10.486700   -0.334300
 C   -2.002400   -9.866400   -1.268600
 N   -2.272000  -10.432400   -2.469100
 C   -1.731500  -11.636900   -2.769900
 C   -0.904100  -12.312200   -1.877400
 C    1.084800  -11.668800    1.235500
 C    1.913500  -12.336900    2.145300
 C    2.863000  -11.927400    3.169800
 C    3.330300  -10.700600    3.657200
 C    4.906000   -8.267300    4.428000
 H    5.495300   -6.180500    4.338700
 H    5.874100   -7.900500    8.129300
 H    5.050300  -10.091800    7.312700
 H    5.479200  -11.918400    6.052100
 H    4.654100  -14.107600    5.184000
 H    1.155900  -15.627400    1.359700
 H   -0.316300  -14.431600   -0.261300
 H   -1.019100   -9.991900    0.627100
 H   -2.468300   -8.898400   -1.060300
 H   -1.964800  -12.053500   -3.754600
 H   -0.477700  -13.269800   -2.186600
 H    1.087000  -10.575400    1.192400
 H    2.943500   -9.763400    3.245300
 H    4.671300   -8.303700    3.361000
 C    8.005700   -4.128000    4.758800
 N    7.883000   -5.157000    5.630700
 C    8.761800   -6.185400    5.568000
 C    9.788000   -6.217000    4.628500
 C    9.936500   -5.162000    3.698600
 C   11.005200   -5.168400    2.676400
 C   12.251000   -5.800400    2.947300
 C   13.288800   -5.832800    2.007900
 C   13.041500   -5.222200    0.778200
 O   13.921100   -5.156500   -0.279300
 C   13.275600   -4.479300   -1.289700
 C   13.804500   -4.196100   -2.549100
 C   12.974500   -3.504700   -3.439900
 C   11.658700   -3.095200   -3.084800
 C   10.818400   -2.365500   -4.058400
 C    9.855600   -1.417000   -3.641400
 C    9.072700   -0.752700   -4.579600
 N    9.196400   -0.987700   -5.907800
 C   10.112700   -1.887300   -6.337900
 C   10.930900   -2.581500   -5.451600
 C   11.156700   -3.391500   -1.797400
 C   11.967100   -4.093200   -0.896300
 C   11.812600   -4.583200    0.465900
 C   10.791000   -4.551100    1.423300
 C    9.006200   -4.100700    3.792600
 H    7.285400   -3.309600    4.851900
 H    8.622900   -7.001100    6.284000
 H   10.450700   -7.086000    4.612200
 H   12.423200   -6.252700    3.928800
 H   14.248200   -6.309200    2.228900
 H   14.819800   -4.495000   -2.825000
 H   13.370000   -3.248600   -4.427700
 H    9.725500   -1.167500   -2.585100
 H    8.332000   -0.007300   -4.274400
 H   10.175000   -2.054000   -7.417500
 H   11.633900   -3.313200   -5.858100
 H   10.138200   -3.109500   -1.513800
 H    9.831000   -4.082900    1.185500
 H    9.068900   -3.231200    3.133200
 C    3.556600   -5.233500    7.941500
 N    4.842100   -5.169100    8.362600
 C    5.101100   -5.094200    9.689700
 C    4.080700   -5.081500   10.636100
 C    2.728100   -5.140800   10.227500
 C    1.617000   -5.119500   11.203100
 C    1.789400   -5.689200   12.495600
 C    0.763100   -5.696900   13.448100
 C   -0.443900   -5.105400   13.074900
 O   -1.567800   -5.003500   13.863900
 C   -2.519300   -4.348100   13.114700
 C   -3.814800   -4.040300   13.530800
 C   -4.630600   -3.372800   12.609100
 C   -4.167600   -3.010700   11.313200
 C   -5.062800   -2.299200   10.375500
 C   -4.559900   -1.380000    9.425400
 C   -5.425300   -0.729700    8.552000
 N   -6.761200   -0.951300    8.574100
 C   -7.272800   -1.824200    9.474100
 C   -6.462200   -2.503300   10.379000
 C   -2.847800   -3.334200   10.925200
 C   -2.020100   -4.012500   11.828500
 C   -0.655500   -4.519000   11.799200
 C    0.379500   -4.532100   10.855900
 C    2.490800   -5.219400    8.835300
 H    3.390800   -5.306600    6.862300
 H    6.152300   -5.032900    9.987600
 H    4.351900   -4.995900   11.691500
 H    2.740400   -6.166800   12.751100
 H    0.898700   -6.150100   14.434200
 H   -4.173100   -4.301800   14.530500
 H   -5.644500   -3.097000   12.915300
 H   -3.494300   -1.141600    9.375500
 H   -5.054500   -0.006400    7.819400
 H   -8.355400   -1.982500    9.451700
 H   -6.930500   -3.214300   11.064400
 H   -2.482300   -3.089900    9.923100
 H    0.236400   -4.063600    9.877300
 H    1.476300   -5.298600    8.435900
 C    4.797100    8.896600    1.218400
 N    4.986600    9.467600    2.431700
 C    6.189400   10.016600    2.724100
 C    7.240400   10.008900    1.811900
 C    7.076500    9.412300    0.540000
 C    8.174400    9.371000   -0.449700
 C    9.147500   10.408800   -0.483300
 C   10.203900   10.408900   -1.402400
 C   10.268000    9.330500   -2.285000
 O   11.230200    9.137100   -3.250900
 C   10.922400    7.954100   -3.884900
 C   11.646100    7.375700   -4.927800
 C   11.169000    6.157100   -5.425600
 C    9.997300    5.535900   -4.909400
 C    9.531400    4.248100   -5.467200
 C    8.159800    3.903700   -5.493900
 C    7.753100    2.680700   -6.016800
 N    8.640500    1.784500   -6.510800
 C    9.960500    2.087200   -6.501800
 C   10.432400    3.295100   -5.996700
 C    9.283000    6.153300   -3.857800
 C    9.751300    7.366400   -3.337800
 C    9.320300    8.273200   -2.283500
 C    8.264200    8.297300   -1.364100
 C    5.807800    8.851200    0.263700
 H    3.806800    8.477100    1.016800
 H    6.303700   10.458700    3.718600
 H    8.195000   10.445500    2.116400
 H    9.058700   11.253000    0.207300
 H   10.940000   11.217300   -1.430600
 H   12.539700    7.853400   -5.339500
 H   11.703800    5.690200   -6.258400
 H    7.393800    4.594800   -5.133100
 H    6.694900    2.404100   -6.053500
 H   10.646500    1.332900   -6.899800
 H   11.511200    3.470700   -5.994000
 H    8.395000    5.679500   -3.428500
 H    7.541800    7.475800   -1.337400
 H    5.586900    8.397200   -0.705800
 C    1.512400    8.287700    5.686400
 N    1.969200    9.461200    5.188300
 C    1.403600   10.620300    5.600700
 C    0.362400   10.640300    6.524100
 C   -0.141800    9.431100    7.056800
 C   -1.254700    9.410200    8.030200
 C   -1.425800   10.486600    8.945100
 C   -2.460500   10.504100    9.888400
 C   -3.332200    9.414900    9.884100
 O   -4.411400    9.244100   10.722200
 C   -4.996800    8.047000   10.374800
 C   -6.120400    7.482700   10.979100
 C   -6.551800    6.248200   10.478500
 C   -5.891600    5.597500    9.398700
 C   -6.386800    4.296600    8.899800
 C   -6.243300    3.919700    7.543900
 C   -6.716000    2.687700    7.103900
 N   -7.318000    1.813000    7.944600
 C   -7.469800    2.145300    9.248500
 C   -7.024400    3.364400    9.750900
 C   -4.758900    6.199600    8.805900
 C   -4.304300    7.428100    9.300800
 C   -3.202500    8.325000    8.983300
 C   -2.153800    8.320300    8.055400
 C    0.471400    8.238100    6.607600
 H    2.005700    7.374700    5.338600
 H    1.794500   11.545300    5.166000
 H   -0.069000   11.606100    6.799500
 H   -0.712000   11.316100    8.940100
 H   -2.576000   11.327900   10.598400
 H   -6.642300    7.983200   11.799600
 H   -7.444300    5.791700   10.917400
 H   -5.788900    4.592800    6.812300
 H   -6.624800    2.386800    6.055300
 H   -7.951500    1.406600    9.896700
 H   -7.154900    3.565400   10.817300
 H   -4.220200    5.702800    7.993200
 H   -2.057100    7.496900    7.341100
 H    0.163700    7.262200    6.991900
 C   -0.763900   -8.897800   -4.873000
 N   -1.952800   -9.470600   -5.178000
 C   -2.125900  -10.023400   -6.402100
 C   -1.115900  -10.015400   -7.359600
 C    0.133800   -9.417800   -7.074000
 C    1.224700   -9.377700   -8.071400
 C    1.350400  -10.416600   -9.035800
 C    2.366100  -10.418400   -9.999500
 C    3.251900   -9.341000   -9.979600
 O    4.306000   -9.150000  -10.844800
 C    4.909500   -7.967900  -10.478400
 C    6.018400   -7.392200  -11.098900
 C    6.470800   -6.174500  -10.576500
 C    5.845800   -5.551400   -9.460200
 C    6.360200   -4.265200   -8.942800
 C    6.251600   -3.918000   -7.576000
 C    6.740000   -2.697500   -7.121100
 N    7.325600   -1.806300   -7.956300
 C    7.445800   -2.111400   -9.270300
 C    6.982400   -3.317200   -9.788000
 C    4.728900   -6.165900   -8.850100
 C    4.253600   -7.378200   -9.365600
 C    3.161000   -8.282700   -9.037300
 C    2.144200   -8.304500   -8.074500
 C    0.285200   -8.854800   -5.785300
 H   -0.660000   -8.473100   -3.869700
 H   -3.103000  -10.469300   -6.612400
 H   -1.325600  -10.453700   -8.338600
 H    0.653800  -11.260200   -9.012400
 H    2.463800  -11.227400  -10.729000
 H    6.513200   -7.871400  -11.948300
 H    7.352400   -5.709900  -11.028800
 H    5.811300   -4.604900   -6.848600
 H    6.674200   -2.418300   -6.065100
 H    7.916300   -1.361600   -9.914100
 H    7.086500   -3.495500  -10.861300
 H    4.217500   -5.690400   -8.007700
 H    2.049000   -7.481900   -7.359200
 H    1.228600   -8.400500   -5.471500
 C   -5.506100   -8.259900   -2.021300
 N   -4.982700   -9.438400   -2.435400
 C   -5.471100  -10.594800   -1.927700
 C   -6.500200  -10.607800   -0.990600
 C   -7.064500   -9.393800   -0.535000
 C   -8.153300   -9.364600    0.465000
 C   -9.097300  -10.427600    0.526600
 C  -10.149500  -10.435700    1.450600
 C  -10.226300   -9.350500    2.323900
 O  -11.176900   -9.171300    3.303900
 C  -10.879800   -7.981700    3.930900
 C  -11.598000   -7.412500    4.982700
 C  -11.131200   -6.187200    5.473900
 C   -9.975100   -5.550500    4.942000
 C   -9.514900   -4.259400    5.496700
 C   -8.145100   -3.907700    5.514200
 C   -7.742000   -2.682700    6.035100
 N   -8.631500   -1.791100    6.533700
 C   -9.949800   -2.100800    6.533000
 C  -10.418100   -3.312000    6.032100
 C   -9.268000   -6.156800    3.879200
 C   -9.726500   -7.376300    3.365800
 C   -9.300800   -8.273900    2.301700
 C   -8.261800   -8.278800    1.362900
 C   -6.532400   -8.203500   -1.084000
 H   -5.091800   -7.348800   -2.464500
 H   -5.012900  -11.524000   -2.280200
 H   -6.835700  -11.572200   -0.600800
 H   -9.025200  -11.253700   -0.187500
 H  -10.879700  -11.249300    1.481600
 H  -12.479100   -7.902600    5.406800
 H  -11.660600   -5.727400    6.314100
 H   -7.378600   -4.595100    5.147300
 H   -6.685200   -2.400100    6.066400
 H  -10.637200   -1.349700    6.934700
 H  -11.495800   -3.494300    6.035900
 H   -8.393200   -5.669800    3.437400
 H   -7.529600   -7.465600    1.350700
 H   -6.930800   -7.224200   -0.806500
