
 OpenBabel04102113273D

 86 93  0  0  0  0  0  0  0  0999 V2000
   -8.0737   -1.4059   -0.1785 H   0  0  0  0  0  0  0  0  0  0  0  0
   -7.1221   -1.9283   -0.0293 C   0  0  0  0  0  0  0  0  0  0  0  0
   -6.9847   -3.1862   -0.1059 N   0  0  0  0  0  0  0  0  0  0  0  0
   -8.0400   -4.0533   -0.2897 C   0  0  0  0  0  0  0  0  0  0  0  0
   -9.2534   -3.9179    0.3894 C   0  0  0  0  0  0  0  0  0  0  0  0
  -10.2478   -4.8626    0.2272 C   0  0  0  0  0  0  0  0  0  0  0  0
  -10.0570   -5.9415   -0.6203 C   0  0  0  0  0  0  0  0  0  0  0  0
   -8.8541   -6.0830   -1.2955 C   0  0  0  0  0  0  0  0  0  0  0  0
   -7.8454   -5.1577   -1.1229 C   0  0  0  0  0  0  0  0  0  0  0  0
   -6.9049   -5.2555   -1.6432 H   0  0  0  0  0  0  0  0  0  0  0  0
   -8.7010   -6.9261   -1.9532 H   0  0  0  0  0  0  0  0  0  0  0  0
  -10.8398   -6.6742   -0.7485 H   0  0  0  0  0  0  0  0  0  0  0  0
  -11.1798   -4.7550    0.7632 H   0  0  0  0  0  0  0  0  0  0  0  0
   -9.3911   -3.0857    1.0652 H   0  0  0  0  0  0  0  0  0  0  0  0
   -5.9826   -1.0654    0.2327 C   0  0  0  0  0  0  0  0  0  0  0  0
   -6.2342    0.2446    0.2642 N   0  0  0  0  0  0  0  0  0  0  0  0
   -5.2394    1.0715    0.4932 C   0  0  0  0  0  0  0  0  0  0  0  0
   -3.9189    0.6649    0.7089 C   0  0  0  0  0  0  0  0  0  0  0  0
   -3.6606   -0.7067    0.6805 C   0  0  0  0  0  0  0  0  0  0  0  0
   -4.6998   -1.5810    0.4374 C   0  0  0  0  0  0  0  0  0  0  0  0
   -4.5542   -2.6484    0.4047 H   0  0  0  0  0  0  0  0  0  0  0  0
   -2.6590   -1.0719    0.8511 H   0  0  0  0  0  0  0  0  0  0  0  0
   -2.8620    1.6533    0.9513 C   0  0  0  0  0  0  0  0  0  0  0  0
   -3.0551    2.6779    1.8456 C   0  0  0  0  0  0  0  0  0  0  0  0
   -2.0517    3.6302    2.1052 C   0  0  0  0  0  0  0  0  0  0  0  0
   -2.2392    4.6764    3.0329 C   0  0  0  0  0  0  0  0  0  0  0  0
   -1.2493    5.5894    3.2651 C   0  0  0  0  0  0  0  0  0  0  0  0
   -0.0269    5.4965    2.5823 C   0  0  0  0  0  0  0  0  0  0  0  0
    0.1874    4.4934    1.6782 C   0  0  0  0  0  0  0  0  0  0  0  0
   -0.8160    3.5386    1.4147 C   0  0  0  0  0  0  0  0  0  0  0  0
   -0.6261    2.4876    0.4795 C   0  0  0  0  0  0  0  0  0  0  0  0
   -1.6274    1.5697    0.2557 C   0  0  0  0  0  0  0  0  0  0  0  0
   -1.4005    0.5344   -0.6393 O   0  0  0  0  0  0  0  0  0  0  0  0
   -1.9684    0.7338   -1.9158 C   0  0  0  0  0  0  0  0  0  0  0  0
   -1.7460   -0.1645   -2.4883 H   0  0  0  0  0  0  0  0  0  0  0  0
   -1.5257    1.6039   -2.4126 H   0  0  0  0  0  0  0  0  0  0  0  0
   -3.0543    0.8675   -1.8553 H   0  0  0  0  0  0  0  0  0  0  0  0
    0.6144    2.4215   -0.3359 C   0  0  0  0  0  0  0  0  0  0  0  0
    1.6726    1.5759   -0.0754 C   0  0  0  0  0  0  0  0  0  0  0  0
    2.8005    1.5632   -0.9552 C   0  0  0  0  0  0  0  0  0  0  0  0
    2.8475    2.4053   -2.0317 C   0  0  0  0  0  0  0  0  0  0  0  0
    1.7864    3.2830   -2.3227 C   0  0  0  0  0  0  0  0  0  0  0  0
    1.8214    4.1429   -3.4382 C   0  0  0  0  0  0  0  0  0  0  0  0
    0.7747    4.9786   -3.7110 C   0  0  0  0  0  0  0  0  0  0  0  0
   -0.3494    4.9819   -2.8743 C   0  0  0  0  0  0  0  0  0  0  0  0
   -0.4100    4.1583   -1.7834 C   0  0  0  0  0  0  0  0  0  0  0  0
    0.6547    3.2854   -1.4703 C   0  0  0  0  0  0  0  0  0  0  0  0
   -1.2845    4.1772   -1.1496 H   0  0  0  0  0  0  0  0  0  0  0  0
   -1.1748    5.6425   -3.0960 H   0  0  0  0  0  0  0  0  0  0  0  0
    0.8053    5.6358   -4.5671 H   0  0  0  0  0  0  0  0  0  0  0  0
    2.6950    4.1259   -4.0740 H   0  0  0  0  0  0  0  0  0  0  0  0
    3.7029    2.3815   -2.6914 H   0  0  0  0  0  0  0  0  0  0  0  0
    3.9184    0.6448   -0.7005 C   0  0  0  0  0  0  0  0  0  0  0  0
    5.2345    1.1155   -0.7038 C   0  0  0  0  0  0  0  0  0  0  0  0
    6.2892    0.3546   -0.5149 N   0  0  0  0  0  0  0  0  0  0  0  0
    6.1054   -0.9496   -0.3040 C   0  0  0  0  0  0  0  0  0  0  0  0
    4.8326   -1.5263   -0.2798 C   0  0  0  0  0  0  0  0  0  0  0  0
    3.7318   -0.7204   -0.4831 C   0  0  0  0  0  0  0  0  0  0  0  0
    2.7359   -1.1367   -0.4876 H   0  0  0  0  0  0  0  0  0  0  0  0
    4.7436   -2.5871   -0.1097 H   0  0  0  0  0  0  0  0  0  0  0  0
    7.3083   -1.7389   -0.1002 C   0  0  0  0  0  0  0  0  0  0  0  0
    7.2468   -2.9907    0.0907 N   0  0  0  0  0  0  0  0  0  0  0  0
    8.3508   -3.7701    0.3602 C   0  0  0  0  0  0  0  0  0  0  0  0
    9.3456   -3.3774    1.2594 C   0  0  0  0  0  0  0  0  0  0  0  0
   10.3880   -4.2329    1.5578 C   0  0  0  0  0  0  0  0  0  0  0  0
   10.4646   -5.4791    0.9581 C   0  0  0  0  0  0  0  0  0  0  0  0
    9.4796   -5.8757    0.0663 C   0  0  0  0  0  0  0  0  0  0  0  0
    8.4218   -5.0381   -0.2217 C   0  0  0  0  0  0  0  0  0  0  0  0
    7.6493   -5.3349   -0.9146 H   0  0  0  0  0  0  0  0  0  0  0  0
    9.5346   -6.8490   -0.3994 H   0  0  0  0  0  0  0  0  0  0  0  0
   11.2848   -6.1421    1.1899 H   0  0  0  0  0  0  0  0  0  0  0  0
   11.1483   -3.9241    2.2609 H   0  0  0  0  0  0  0  0  0  0  0  0
    9.2716   -2.4121    1.7399 H   0  0  0  0  0  0  0  0  0  0  0  0
    8.2462   -1.1743   -0.1505 H   0  0  0  0  0  0  0  0  0  0  0  0
    5.4385    2.1683   -0.8560 H   0  0  0  0  0  0  0  0  0  0  0  0
    1.8413    0.7436    0.9872 O   0  0  0  0  0  0  0  0  0  0  0  0
    0.8546    0.5459    1.9676 C   0  0  0  0  0  0  0  0  0  0  0  0
    0.5792    1.4764    2.4703 H   0  0  0  0  0  0  0  0  0  0  0  0
    1.3121   -0.1301    2.6908 H   0  0  0  0  0  0  0  0  0  0  0  0
   -0.0387    0.0767    1.5492 H   0  0  0  0  0  0  0  0  0  0  0  0
    1.1277    4.4197    1.1515 H   0  0  0  0  0  0  0  0  0  0  0  0
    0.7463    6.2246    2.7774 H   0  0  0  0  0  0  0  0  0  0  0  0
   -1.4000    6.3879    3.9764 H   0  0  0  0  0  0  0  0  0  0  0  0
   -3.1826    4.7404    3.5558 H   0  0  0  0  0  0  0  0  0  0  0  0
   -3.9885    2.7453    2.3858 H   0  0  0  0  0  0  0  0  0  0  0  0
   -5.4948    2.1241    0.4898 H   0  0  0  0  0  0  0  0  0  0  0  0
  1  2  1  0  0  0  0
  2 15  1  0  0  0  0
  3  2  2  0  0  0  0
  4  3  1  0  0  0  0
  4  5  2  0  0  0  0
  5 14  1  0  0  0  0
  6  5  1  0  0  0  0
  6 13  1  0  0  0  0
  7  6  2  0  0  0  0
  8  9  2  0  0  0  0
  8  7  1  0  0  0  0
  9  4  1  0  0  0  0
 10  9  1  0  0  0  0
 11  8  1  0  0  0  0
 12  7  1  0  0  0  0
 15 16  2  0  0  0  0
 15 20  1  0  0  0  0
 16 17  1  0  0  0  0
 17 18  2  0  0  0  0
 18 23  1  0  0  0  0
 19 18  1  0  0  0  0
 19 22  1  0  0  0  0
 20 19  2  0  0  0  0
 21 20  1  0  0  0  0
 23 24  2  0  0  0  0
 24 25  1  0  0  0  0
 24 85  1  0  0  0  0
 25 26  2  0  0  0  0
 26 27  1  0  0  0  0
 26 84  1  0  0  0  0
 27 83  1  0  0  0  0
 28 82  1  0  0  0  0
 28 27  2  0  0  0  0
 29 28  1  0  0  0  0
 30 29  2  0  0  0  0
 30 25  1  0  0  0  0
 31 30  1  0  0  0  0
 32 31  2  0  0  0  0
 32 23  1  0  0  0  0
 33 32  1  0  0  0  0
 34 37  1  0  0  0  0
 34 33  1  0  0  0  0
 35 34  1  0  0  0  0
 36 34  1  0  0  0  0
 38 39  1  0  0  0  0
 38 31  1  0  0  0  0
 39 76  1  0  0  0  0
 40 53  1  0  0  0  0
 40 39  2  0  0  0  0
 41 40  1  0  0  0  0
 42 41  2  0  0  0  0
 42 47  1  0  0  0  0
 43 42  1  0  0  0  0
 44 43  2  0  0  0  0
 44 45  1  0  0  0  0
 45 46  2  0  0  0  0
 46 47  1  0  0  0  0
 46 48  1  0  0  0  0
 47 38  2  0  0  0  0
 49 45  1  0  0  0  0
 50 44  1  0  0  0  0
 51 43  1  0  0  0  0
 52 41  1  0  0  0  0
 53 58  1  0  0  0  0
 54 53  2  0  0  0  0
 54 55  1  0  0  0  0
 55 56  2  0  0  0  0
 56 57  1  0  0  0  0
 56 61  1  0  0  0  0
 57 60  1  0  0  0  0
 58 57  2  0  0  0  0
 59 58  1  0  0  0  0
 61 62  2  0  0  0  0
 62 63  1  0  0  0  0
 63 64  2  0  0  0  0
 64 65  1  0  0  0  0
 64 73  1  0  0  0  0
 65 72  1  0  0  0  0
 66 71  1  0  0  0  0
 66 65  2  0  0  0  0
 67 66  1  0  0  0  0
 68 67  2  0  0  0  0
 68 63  1  0  0  0  0
 69 68  1  0  0  0  0
 70 67  1  0  0  0  0
 74 61  1  0  0  0  0
 75 54  1  0  0  0  0
 76 77  1  0  0  0  0
 77 78  1  0  0  0  0
 77 79  1  0  0  0  0
 80 77  1  0  0  0  0
 81 29  1  0  0  0  0
 86 17  1  0  0  0  0
M  END
