
     RDKit          3D

  0  0  0  0  0  0  0  0  0  0999 V3000
M  V30 BEGIN CTAB
M  V30 COUNTS 80 87 0 0 0
M  V30 BEGIN ATOM
M  V30 1 H 13.1656 9.6607 12.8085 0
M  V30 2 H 11.3892 9.4149 15.8420 0
M  V30 3 H 15.7321 15.9684 10.1834 0
M  V30 4 H 5.6404 5.0933 15.9820 0
M  V30 5 H 12.2895 13.0289 13.0009 0
M  V30 6 H 9.9350 5.1567 12.8057 0
M  V30 7 H 14.1307 17.3659 4.8576 0
M  V30 8 H 0.5418 4.5815 13.3786 0
M  V30 9 H 15.4769 15.4835 5.7191 0
M  V30 10 H 1.7724 6.5140 14.2991 0
M  V30 11 H 12.5602 18.5361 6.3584 0
M  V30 12 H 1.7688 2.5329 12.7561 0
M  V30 13 H 15.1294 10.3250 20.2138 0
M  V30 14 H 16.8317 5.1076 12.5271 0
M  V30 15 H 14.3766 8.1120 19.4419 0
M  V30 16 H 17.4911 7.3407 13.3312 0
M  V30 17 H 16.6643 15.1269 12.4833 0
M  V30 18 H 7.8347 5.8526 17.1513 0
M  V30 19 H 12.3293 17.8366 8.6941 0
M  V30 20 H 4.1966 2.4093 13.0539 0
M  V30 21 H 16.3321 13.4972 14.3345 0
M  V30 22 H 10.1499 6.6758 16.8050 0
M  V30 23 H 15.1915 12.2259 18.6487 0
M  V30 24 H 14.4819 4.3849 12.6715 0
M  V30 25 H 13.6643 7.7744 17.1205 0
M  V30 26 H 15.8267 8.8621 14.2887 0
M  V30 27 H 15.2510 14.7784 8.0674 0
M  V30 28 H 4.2121 6.3976 14.5941 0
M  V30 29 H 14.9002 13.1044 16.3862 0
M  V30 30 H 12.2094 4.7756 13.4692 0
M  V30 31 N 13.4320 14.3613 11.9492 0
M  V30 32 N 8.2646 4.8861 13.9592 0
M  V30 33 N 13.6751 15.8313 9.8722 0
M  V30 34 N 5.7604 4.3523 14.0365 0
M  V30 35 O 13.2617 10.6043 12.9985 0
M  V30 36 O 10.9777 8.6109 15.4942 0
M  V30 37 C 14.7597 15.6514 10.5472 0
M  V30 38 C 6.2575 4.8260 15.1301 0
M  V30 39 C 13.2729 13.4647 12.9092 0
M  V30 40 C 9.5004 5.3256 13.7801 0
M  V30 41 C 14.0287 17.0527 5.8841 0
M  V30 42 C 1.6109 4.5312 13.5069 0
M  V30 43 C 14.7870 15.9985 6.3689 0
M  V30 44 C 2.3020 5.6145 14.0272 0
M  V30 45 C 13.1430 17.7066 6.7267 0
M  V30 46 C 2.3017 3.3821 13.1538 0
M  V30 47 C 14.8177 10.1994 19.1893 0
M  V30 48 C 16.0812 5.7686 12.9297 0
M  V30 49 C 14.3857 8.9388 18.7490 0
M  V30 50 C 16.4569 7.0404 13.3890 0
M  V30 51 C 15.7146 14.6396 12.6329 0
M  V30 52 C 8.3316 5.7288 16.2029 0
M  V30 53 C 13.0084 17.3110 8.0442 0
M  V30 54 C 3.6720 3.3114 13.3180 0
M  V30 55 C 15.5278 13.7362 13.6565 0
M  V30 56 C 9.6159 6.1873 16.0068 0
M  V30 57 C 14.8512 11.2553 18.3221 0
M  V30 58 C 14.7793 5.3641 13.0155 0
M  V30 59 C 13.9840 8.7509 17.4541 0
M  V30 60 C 15.5291 7.8900 13.9251 0
M  V30 61 C 14.6727 15.6095 7.6894 0
M  V30 62 C 3.6693 5.5457 14.2093 0
M  V30 63 C 14.5258 12.1483 16.0524 0
M  V30 64 C 12.4789 5.7708 13.7902 0
M  V30 65 C 14.6547 14.9023 11.7629 0
M  V30 66 C 7.6587 5.1160 15.1428 0
M  V30 67 C 13.7819 16.2651 8.5447 0
M  V30 68 C 4.3725 4.3865 13.8638 0
M  V30 69 C 13.6375 10.7348 14.3134 0
M  V30 70 C 11.9299 7.8427 14.8960 0
M  V30 71 C 14.2967 13.0791 13.7736 0
M  V30 72 C 10.2177 6.0233 14.7529 0
M  V30 73 C 14.4507 11.0939 16.9782 0
M  V30 74 C 13.8025 6.2021 13.5952 0
M  V30 75 C 14.1239 11.9963 14.7459 0
M  V30 76 C 11.5556 6.5425 14.4577 0
M  V30 77 C 13.9985 9.8208 16.5367 0
M  V30 78 C 14.1834 7.4907 14.0572 0
M  V30 79 C 13.5998 9.6644 15.1810 0
M  V30 80 C 13.2083 8.3143 14.6809 0
M  V30 END ATOM
M  V30 BEGIN BOND
M  V30 1 1 1 35
M  V30 2 1 2 36
M  V30 3 1 3 37
M  V30 4 1 4 38
M  V30 5 1 5 39
M  V30 6 1 6 40
M  V30 7 1 7 41
M  V30 8 1 8 42
M  V30 9 1 9 43
M  V30 10 1 10 44
M  V30 11 1 11 45
M  V30 12 1 12 46
M  V30 13 1 13 47
M  V30 14 1 14 48
M  V30 15 1 15 49
M  V30 16 1 16 50
M  V30 17 1 17 51
M  V30 18 1 18 52
M  V30 19 1 19 53
M  V30 20 1 20 54
M  V30 21 1 21 55
M  V30 22 1 22 56
M  V30 23 1 23 57
M  V30 24 1 24 58
M  V30 25 1 25 59
M  V30 26 1 26 60
M  V30 27 1 27 61
M  V30 28 1 28 62
M  V30 29 1 29 63
M  V30 30 1 30 64
M  V30 31 1 31 39
M  V30 32 1 31 65
M  V30 33 1 32 40
M  V30 34 1 32 66
M  V30 35 1 33 37
M  V30 36 1 33 67
M  V30 37 1 34 38
M  V30 38 1 34 68
M  V30 39 1 35 69
M  V30 40 1 36 70
M  V30 41 2 37 65
M  V30 42 2 38 66
M  V30 43 2 39 71
M  V30 44 2 40 72
M  V30 45 2 41 43
M  V30 46 1 41 45
M  V30 47 2 42 44
M  V30 48 1 42 46
M  V30 49 1 43 61
M  V30 50 1 44 62
M  V30 51 2 45 53
M  V30 52 2 46 54
M  V30 53 1 47 49
M  V30 54 2 47 57
M  V30 55 1 48 50
M  V30 56 2 48 58
M  V30 57 2 49 59
M  V30 58 2 50 60
M  V30 59 2 51 55
M  V30 60 1 51 65
M  V30 61 2 52 56
M  V30 62 1 52 66
M  V30 63 1 53 67
M  V30 64 1 54 68
M  V30 65 1 55 71
M  V30 66 1 56 72
M  V30 67 1 57 73
M  V30 68 1 58 74
M  V30 69 1 59 77
M  V30 70 1 60 78
M  V30 71 2 61 67
M  V30 72 2 62 68
M  V30 73 2 63 73
M  V30 74 1 63 75
M  V30 75 2 64 74
M  V30 76 1 64 76
M  V30 77 2 69 75
M  V30 78 1 69 79
M  V30 79 2 70 76
M  V30 80 1 70 80
M  V30 81 1 71 75
M  V30 82 1 72 76
M  V30 83 1 73 77
M  V30 84 1 74 78
M  V30 85 2 77 79
M  V30 86 2 78 80
M  V30 87 1 79 80
M  V30 END BOND
M  V30 END CTAB
M  END

$$$$
