
 OpenBabel04122116323D

 56 60  0  0  0  0  0  0  0  0999 V2000
   -7.4466   -0.8419   -1.2839 H   0  0  0  0  0  0  0  0  0  0  0  0
   -7.0920   -0.2299   -0.4342 C   0  0  0  0  0  0  0  0  0  0  0  0
   -7.8671    0.4028    0.3531 N   0  0  0  0  0  0  0  0  0  0  0  0
   -9.2512    0.2955    0.2305 C   0  0  0  0  0  0  0  0  0  0  0  0
   -9.9013   -0.9089   -0.0851 C   0  0  0  0  0  0  0  0  0  0  0  0
  -11.2892   -0.9525   -0.1764 C   0  0  0  0  0  0  0  0  0  0  0  0
  -12.0475    0.1981    0.0371 C   0  0  0  0  0  0  0  0  0  0  0  0
  -11.4076    1.3946    0.3634 C   0  0  0  0  0  0  0  0  0  0  0  0
  -10.0229    1.4408    0.4773 C   0  0  0  0  0  0  0  0  0  0  0  0
   -9.5060    2.3637    0.7472 H   0  0  0  0  0  0  0  0  0  0  0  0
  -11.9955    2.2980    0.5431 H   0  0  0  0  0  0  0  0  0  0  0  0
  -13.1368    0.1593   -0.0361 H   0  0  0  0  0  0  0  0  0  0  0  0
  -11.7845   -1.8981   -0.4105 H   0  0  0  0  0  0  0  0  0  0  0  0
   -9.3118   -1.8176   -0.2278 H   0  0  0  0  0  0  0  0  0  0  0  0
   -5.6318   -0.1816   -0.2872 C   0  0  0  0  0  0  0  0  0  0  0  0
   -4.9256   -0.8575   -1.1987 N   0  0  0  0  0  0  0  0  0  0  0  0
   -3.6048   -0.8394   -1.1112 C   0  0  0  0  0  0  0  0  0  0  0  0
   -2.8895   -0.1503   -0.1169 C   0  0  0  0  0  0  0  0  0  0  0  0
   -3.6467    0.5474    0.8362 C   0  0  0  0  0  0  0  0  0  0  0  0
   -5.0287    0.5342    0.7554 C   0  0  0  0  0  0  0  0  0  0  0  0
   -5.6638    1.0673    1.4647 H   0  0  0  0  0  0  0  0  0  0  0  0
   -3.1453    1.1165    1.6230 H   0  0  0  0  0  0  0  0  0  0  0  0
   -1.4169   -0.1694   -0.0780 C   0  0  0  0  0  0  0  0  0  0  0  0
   -0.6596   -0.1409   -1.2584 C   0  0  0  0  0  0  0  0  0  0  0  0
    0.7282   -0.1457   -1.2173 C   0  0  0  0  0  0  0  0  0  0  0  0
    1.4160   -0.1867    0.0043 C   0  0  0  0  0  0  0  0  0  0  0  0
    0.6586   -0.2230    1.1845 C   0  0  0  0  0  0  0  0  0  0  0  0
   -0.7291   -0.2111    1.1436 C   0  0  0  0  0  0  0  0  0  0  0  0
   -1.2923   -0.2504    2.0788 H   0  0  0  0  0  0  0  0  0  0  0  0
    1.1660   -0.2395    2.1516 H   0  0  0  0  0  0  0  0  0  0  0  0
    2.8886   -0.1832    0.0475 C   0  0  0  0  0  0  0  0  0  0  0  0
    3.5936   -0.9358    1.0024 C   0  0  0  0  0  0  0  0  0  0  0  0
    4.9134   -0.9629    1.1003 N   0  0  0  0  0  0  0  0  0  0  0  0
    5.6294   -0.2336    0.2391 C   0  0  0  0  0  0  0  0  0  0  0  0
    5.0373    0.5429   -0.7658 C   0  0  0  0  0  0  0  0  0  0  0  0
    3.6560    0.5657   -0.8573 C   0  0  0  0  0  0  0  0  0  0  0  0
    3.1631    1.1830   -1.6125 H   0  0  0  0  0  0  0  0  0  0  0  0
    5.6799    1.1162   -1.4359 H   0  0  0  0  0  0  0  0  0  0  0  0
    7.0873   -0.2850    0.4050 C   0  0  0  0  0  0  0  0  0  0  0  0
    7.8707    0.3987   -0.3299 N   0  0  0  0  0  0  0  0  0  0  0  0
    9.2534    0.2989   -0.1856 C   0  0  0  0  0  0  0  0  0  0  0  0
   10.0157    1.4635   -0.3607 C   0  0  0  0  0  0  0  0  0  0  0  0
   11.3981    1.4282   -0.2195 C   0  0  0  0  0  0  0  0  0  0  0  0
   12.0463    0.2251    0.0629 C   0  0  0  0  0  0  0  0  0  0  0  0
   11.2983   -0.9433    0.2044 C   0  0  0  0  0  0  0  0  0  0  0  0
    9.9122   -0.9117    0.0853 C   0  0  0  0  0  0  0  0  0  0  0  0
    9.3319   -1.8333    0.1716 H   0  0  0  0  0  0  0  0  0  0  0  0
   11.8005   -1.8933    0.4034 H   0  0  0  0  0  0  0  0  0  0  0  0
   13.1342    0.1957    0.1579 H   0  0  0  0  0  0  0  0  0  0  0  0
   11.9780    2.3462   -0.3427 H   0  0  0  0  0  0  0  0  0  0  0  0
    9.4927    2.3924   -0.5964 H   0  0  0  0  0  0  0  0  0  0  0  0
    7.4317   -0.9436    1.2235 H   0  0  0  0  0  0  0  0  0  0  0  0
    3.0404   -1.5656    1.7089 H   0  0  0  0  0  0  0  0  0  0  0  0
    1.2915   -0.1324   -2.1533 H   0  0  0  0  0  0  0  0  0  0  0  0
   -1.1670   -0.0925   -2.2245 H   0  0  0  0  0  0  0  0  0  0  0  0
   -3.0596   -1.4255   -1.8603 H   0  0  0  0  0  0  0  0  0  0  0  0
  1  2  1  0  0  0  0
  2 15  1  0  0  0  0
  2  3  2  0  0  0  0
  4  3  1  0  0  0  0
  4  9  2  0  0  0  0
  5  4  1  0  0  0  0
  6  5  2  0  0  0  0
  6  7  1  0  0  0  0
  7  8  2  0  0  0  0
  8  9  1  0  0  0  0
  8 11  1  0  0  0  0
  9 10  1  0  0  0  0
 12  7  1  0  0  0  0
 13  6  1  0  0  0  0
 14  5  1  0  0  0  0
 15 20  2  0  0  0  0
 16 17  2  0  0  0  0
 16 15  1  0  0  0  0
 17 18  1  0  0  0  0
 18 23  1  0  0  0  0
 18 19  2  0  0  0  0
 19 22  1  0  0  0  0
 20 19  1  0  0  0  0
 20 21  1  0  0  0  0
 23 28  2  0  0  0  0
 24 25  2  0  0  0  0
 24 23  1  0  0  0  0
 25 26  1  0  0  0  0
 26 31  1  0  0  0  0
 26 27  2  0  0  0  0
 27 30  1  0  0  0  0
 28 27  1  0  0  0  0
 28 29  1  0  0  0  0
 31 32  2  0  0  0  0
 32 33  1  0  0  0  0
 32 53  1  0  0  0  0
 34 39  1  0  0  0  0
 34 33  2  0  0  0  0
 35 34  1  0  0  0  0
 36 35  2  0  0  0  0
 36 31  1  0  0  0  0
 37 36  1  0  0  0  0
 38 35  1  0  0  0  0
 39 52  1  0  0  0  0
 40 41  1  0  0  0  0
 40 39  2  0  0  0  0
 41 46  2  0  0  0  0
 42 43  2  0  0  0  0
 42 41  1  0  0  0  0
 43 44  1  0  0  0  0
 44 49  1  0  0  0  0
 44 45  2  0  0  0  0
 45 48  1  0  0  0  0
 46 47  1  0  0  0  0
 46 45  1  0  0  0  0
 50 43  1  0  0  0  0
 51 42  1  0  0  0  0
 54 25  1  0  0  0  0
 55 24  1  0  0  0  0
 56 17  1  0  0  0  0
M  END
