
 OpenBabel04102113273D

 56 60  0  0  0  0  0  0  0  0999 V2000
   -7.3538   -0.9106   -1.3749 H   0  0  0  0  0  0  0  0  0  0  0  0
   -7.0298   -0.2851   -0.5356 C   0  0  0  0  0  0  0  0  0  0  0  0
   -7.8227    0.3601    0.2142 N   0  0  0  0  0  0  0  0  0  0  0  0
   -9.1947    0.2679    0.1208 C   0  0  0  0  0  0  0  0  0  0  0  0
   -9.8565   -0.9510   -0.0481 C   0  0  0  0  0  0  0  0  0  0  0  0
  -11.2369   -0.9955   -0.0534 C   0  0  0  0  0  0  0  0  0  0  0  0
  -11.9754    0.1672    0.0926 C   0  0  0  0  0  0  0  0  0  0  0  0
  -11.3247    1.3798    0.2628 C   0  0  0  0  0  0  0  0  0  0  0  0
   -9.9463    1.4328    0.2931 C   0  0  0  0  0  0  0  0  0  0  0  0
   -9.4279    2.3703    0.4235 H   0  0  0  0  0  0  0  0  0  0  0  0
  -11.8984    2.2875    0.3815 H   0  0  0  0  0  0  0  0  0  0  0  0
  -13.0545    0.1282    0.0816 H   0  0  0  0  0  0  0  0  0  0  0  0
  -11.7406   -1.9437   -0.1754 H   0  0  0  0  0  0  0  0  0  0  0  0
   -9.2769   -1.8585   -0.1417 H   0  0  0  0  0  0  0  0  0  0  0  0
   -5.5911   -0.2084   -0.3477 C   0  0  0  0  0  0  0  0  0  0  0  0
   -4.8486   -0.9051   -1.2094 N   0  0  0  0  0  0  0  0  0  0  0  0
   -3.5409   -0.8664   -1.0917 C   0  0  0  0  0  0  0  0  0  0  0  0
   -2.8632   -0.1305   -0.1134 C   0  0  0  0  0  0  0  0  0  0  0  0
   -3.6471    0.5888    0.7917 C   0  0  0  0  0  0  0  0  0  0  0  0
   -5.0209    0.5505    0.6786 C   0  0  0  0  0  0  0  0  0  0  0  0
   -5.6677    1.0923    1.3494 H   0  0  0  0  0  0  0  0  0  0  0  0
   -3.1757    1.1867    1.5589 H   0  0  0  0  0  0  0  0  0  0  0  0
   -1.4005   -0.1246   -0.0453 C   0  0  0  0  0  0  0  0  0  0  0  0
   -0.6337   -0.0886   -1.2094 C   0  0  0  0  0  0  0  0  0  0  0  0
    0.7440   -0.0791   -1.1455 C   0  0  0  0  0  0  0  0  0  0  0  0
    1.4014   -0.1213    0.0836 C   0  0  0  0  0  0  0  0  0  0  0  0
    0.6347   -0.1655    1.2475 C   0  0  0  0  0  0  0  0  0  0  0  0
   -0.7432   -0.1591    1.1841 C   0  0  0  0  0  0  0  0  0  0  0  0
   -1.3198   -0.2038    2.0964 H   0  0  0  0  0  0  0  0  0  0  0  0
    1.1263   -0.1830    2.2091 H   0  0  0  0  0  0  0  0  0  0  0  0
    2.8643   -0.1249    0.1479 C   0  0  0  0  0  0  0  0  0  0  0  0
    3.5494   -0.9210    1.0723 C   0  0  0  0  0  0  0  0  0  0  0  0
    4.8580   -0.9667    1.1772 N   0  0  0  0  0  0  0  0  0  0  0  0
    5.5938   -0.2162    0.3560 C   0  0  0  0  0  0  0  0  0  0  0  0
    5.0157    0.6098   -0.6124 C   0  0  0  0  0  0  0  0  0  0  0  0
    3.6412    0.6545   -0.7125 C   0  0  0  0  0  0  0  0  0  0  0  0
    3.1639    1.3016   -1.4348 H   0  0  0  0  0  0  0  0  0  0  0  0
    5.6575    1.1953   -1.2506 H   0  0  0  0  0  0  0  0  0  0  0  0
    7.0345   -0.3090    0.5211 C   0  0  0  0  0  0  0  0  0  0  0  0
    7.8197    0.3781   -0.1990 N   0  0  0  0  0  0  0  0  0  0  0  0
    9.1924    0.2749   -0.1338 C   0  0  0  0  0  0  0  0  0  0  0  0
    9.9469    1.4451   -0.2485 C   0  0  0  0  0  0  0  0  0  0  0  0
   11.3253    1.3849   -0.2457 C   0  0  0  0  0  0  0  0  0  0  0  0
   11.9727    0.1616   -0.1607 C   0  0  0  0  0  0  0  0  0  0  0  0
   11.2309   -1.0049   -0.0722 C   0  0  0  0  0  0  0  0  0  0  0  0
    9.8508   -0.9547   -0.0505 C   0  0  0  0  0  0  0  0  0  0  0  0
    9.2683   -1.8638   -0.0021 H   0  0  0  0  0  0  0  0  0  0  0  0
   11.7318   -1.9607   -0.0168 H   0  0  0  0  0  0  0  0  0  0  0  0
   13.0515    0.1176   -0.1712 H   0  0  0  0  0  0  0  0  0  0  0  0
   11.9015    2.2957   -0.3196 H   0  0  0  0  0  0  0  0  0  0  0  0
    9.4309    2.3909   -0.3131 H   0  0  0  0  0  0  0  0  0  0  0  0
    7.3670   -0.9865    1.3153 H   0  0  0  0  0  0  0  0  0  0  0  0
    3.0064   -1.5688    1.7489 H   0  0  0  0  0  0  0  0  0  0  0  0
    1.3206   -0.0613   -2.0587 H   0  0  0  0  0  0  0  0  0  0  0  0
   -1.1253   -0.0457   -2.1702 H   0  0  0  0  0  0  0  0  0  0  0  0
   -2.9924   -1.4695   -1.8042 H   0  0  0  0  0  0  0  0  0  0  0  0
  1  2  1  0  0  0  0
  2 15  1  0  0  0  0
  2  3  2  0  0  0  0
  4  3  1  0  0  0  0
  4  9  2  0  0  0  0
  5  4  1  0  0  0  0
  6  5  2  0  0  0  0
  6  7  1  0  0  0  0
  7  8  2  0  0  0  0
  8  9  1  0  0  0  0
  8 11  1  0  0  0  0
  9 10  1  0  0  0  0
 12  7  1  0  0  0  0
 13  6  1  0  0  0  0
 14  5  1  0  0  0  0
 15 20  2  0  0  0  0
 16 17  2  0  0  0  0
 16 15  1  0  0  0  0
 17 18  1  0  0  0  0
 18 23  1  0  0  0  0
 18 19  2  0  0  0  0
 19 22  1  0  0  0  0
 20 19  1  0  0  0  0
 20 21  1  0  0  0  0
 23 28  2  0  0  0  0
 24 25  2  0  0  0  0
 24 23  1  0  0  0  0
 25 26  1  0  0  0  0
 26 31  1  0  0  0  0
 26 27  2  0  0  0  0
 27 30  1  0  0  0  0
 28 27  1  0  0  0  0
 28 29  1  0  0  0  0
 31 32  2  0  0  0  0
 32 33  1  0  0  0  0
 32 53  1  0  0  0  0
 34 39  1  0  0  0  0
 34 33  2  0  0  0  0
 35 34  1  0  0  0  0
 36 35  2  0  0  0  0
 36 31  1  0  0  0  0
 37 36  1  0  0  0  0
 38 35  1  0  0  0  0
 39 52  1  0  0  0  0
 40 41  1  0  0  0  0
 40 39  2  0  0  0  0
 41 46  2  0  0  0  0
 42 43  2  0  0  0  0
 42 41  1  0  0  0  0
 43 44  1  0  0  0  0
 44 45  2  0  0  0  0
 45 46  1  0  0  0  0
 45 48  1  0  0  0  0
 46 47  1  0  0  0  0
 49 44  1  0  0  0  0
 50 43  1  0  0  0  0
 51 42  1  0  0  0  0
 54 25  1  0  0  0  0
 55 24  1  0  0  0  0
 56 17  1  0  0  0  0
M  END
