
 OpenBabel04102113273D

 46 49  0  0  0  0  0  0  0  0999 V2000
   -5.1753    1.6072    0.4822 H   0  0  0  0  0  0  0  0  0  0  0  0
   -4.8805    0.6075    0.1447 C   0  0  0  0  0  0  0  0  0  0  0  0
   -5.6998   -0.2881   -0.2215 N   0  0  0  0  0  0  0  0  0  0  0  0
   -7.0676   -0.1407   -0.1418 C   0  0  0  0  0  0  0  0  0  0  0  0
   -7.8464   -0.6612   -1.1784 C   0  0  0  0  0  0  0  0  0  0  0  0
   -9.2226   -0.5859   -1.1170 C   0  0  0  0  0  0  0  0  0  0  0  0
   -9.8446   -0.0223   -0.0131 C   0  0  0  0  0  0  0  0  0  0  0  0
   -9.0794    0.4724    1.0302 C   0  0  0  0  0  0  0  0  0  0  0  0
   -7.7005    0.4238    0.9687 C   0  0  0  0  0  0  0  0  0  0  0  0
   -7.1005    0.7898    1.7898 H   0  0  0  0  0  0  0  0  0  0  0  0
   -9.5609    0.9019    1.8969 H   0  0  0  0  0  0  0  0  0  0  0  0
  -10.9222    0.0236    0.0368 H   0  0  0  0  0  0  0  0  0  0  0  0
   -9.8173   -0.9768   -1.9297 H   0  0  0  0  0  0  0  0  0  0  0  0
   -7.3499   -1.0962   -2.0323 H   0  0  0  0  0  0  0  0  0  0  0  0
   -3.4474    0.3695    0.1082 C   0  0  0  0  0  0  0  0  0  0  0  0
   -2.6730    1.3857    0.4908 N   0  0  0  0  0  0  0  0  0  0  0  0
   -1.3693    1.2296    0.4710 C   0  0  0  0  0  0  0  0  0  0  0  0
   -0.7285    0.0540    0.0632 C   0  0  0  0  0  0  0  0  0  0  0  0
   -1.5448   -1.0111   -0.3268 C   0  0  0  0  0  0  0  0  0  0  0  0
   -2.9146   -0.8566   -0.3022 C   0  0  0  0  0  0  0  0  0  0  0  0
   -3.5868   -1.6458   -0.5972 H   0  0  0  0  0  0  0  0  0  0  0  0
   -1.1008   -1.9366   -0.6647 H   0  0  0  0  0  0  0  0  0  0  0  0
    0.7283   -0.0516    0.0629 C   0  0  0  0  0  0  0  0  0  0  0  0
    1.3689   -1.2298    0.4632 C   0  0  0  0  0  0  0  0  0  0  0  0
    2.6725   -1.3865    0.4817 N   0  0  0  0  0  0  0  0  0  0  0  0
    3.4472   -0.3681    0.1054 C   0  0  0  0  0  0  0  0  0  0  0  0
    2.9146    0.8607   -0.2971 C   0  0  0  0  0  0  0  0  0  0  0  0
    1.5448    1.0157   -0.3206 C   0  0  0  0  0  0  0  0  0  0  0  0
    1.1011    1.9434   -0.6526 H   0  0  0  0  0  0  0  0  0  0  0  0
    3.5870    1.6516   -0.5872 H   0  0  0  0  0  0  0  0  0  0  0  0
    4.8801   -0.6071    0.1400 C   0  0  0  0  0  0  0  0  0  0  0  0
    5.7002    0.2909   -0.2185 N   0  0  0  0  0  0  0  0  0  0  0  0
    7.0679    0.1411   -0.1402 C   0  0  0  0  0  0  0  0  0  0  0  0
    7.8471    0.6710   -1.1715 C   0  0  0  0  0  0  0  0  0  0  0  0
    9.2233    0.5930   -1.1114 C   0  0  0  0  0  0  0  0  0  0  0  0
    9.8447    0.0171   -0.0136 C   0  0  0  0  0  0  0  0  0  0  0  0
    9.0790   -0.4871    1.0249 C   0  0  0  0  0  0  0  0  0  0  0  0
    7.7002   -0.4357    0.9644 C   0  0  0  0  0  0  0  0  0  0  0  0
    7.1000   -0.8090    1.7819 H   0  0  0  0  0  0  0  0  0  0  0  0
    9.5601   -0.9263    1.8870 H   0  0  0  0  0  0  0  0  0  0  0  0
   10.9222   -0.0312    0.0355 H   0  0  0  0  0  0  0  0  0  0  0  0
    9.8184    0.9913   -1.9202 H   0  0  0  0  0  0  0  0  0  0  0  0
    7.3511    1.1155   -2.0207 H   0  0  0  0  0  0  0  0  0  0  0  0
    5.1741   -1.6099    0.4691 H   0  0  0  0  0  0  0  0  0  0  0  0
    0.7931   -2.0816    0.8027 H   0  0  0  0  0  0  0  0  0  0  0  0
   -0.7937    2.0794    0.8156 H   0  0  0  0  0  0  0  0  0  0  0  0
  2  1  1  0  0  0  0
  3  4  1  0  0  0  0
  3  2  2  0  0  0  0
  4  9  2  0  0  0  0
  5  6  2  0  0  0  0
  5  4  1  0  0  0  0
  6  7  1  0  0  0  0
  7 12  1  0  0  0  0
  7  8  2  0  0  0  0
  8 11  1  0  0  0  0
  9  8  1  0  0  0  0
  9 10  1  0  0  0  0
 13  6  1  0  0  0  0
 14  5  1  0  0  0  0
 15  2  1  0  0  0  0
 15 16  2  0  0  0  0
 17 16  1  0  0  0  0
 17 46  1  0  0  0  0
 18 17  2  0  0  0  0
 19 20  2  0  0  0  0
 19 18  1  0  0  0  0
 20 15  1  0  0  0  0
 21 20  1  0  0  0  0
 22 19  1  0  0  0  0
 23 18  1  0  0  0  0
 23 24  2  0  0  0  0
 24 25  1  0  0  0  0
 24 45  1  0  0  0  0
 26 31  1  0  0  0  0
 26 25  2  0  0  0  0
 27 26  1  0  0  0  0
 28 27  2  0  0  0  0
 28 23  1  0  0  0  0
 29 28  1  0  0  0  0
 30 27  1  0  0  0  0
 31 44  1  0  0  0  0
 32 33  1  0  0  0  0
 32 31  2  0  0  0  0
 33 38  2  0  0  0  0
 34 35  2  0  0  0  0
 34 33  1  0  0  0  0
 35 36  1  0  0  0  0
 36 41  1  0  0  0  0
 36 37  2  0  0  0  0
 37 40  1  0  0  0  0
 38 37  1  0  0  0  0
 38 39  1  0  0  0  0
 42 35  1  0  0  0  0
 43 34  1  0  0  0  0
M  END
