
     RDKit          3D

  0  0  0  0  0  0  0  0  0  0999 V3000
M  V30 BEGIN CTAB
M  V30 COUNTS 86 93 0 0 0
M  V30 BEGIN ATOM
M  V30 1 H 8.7047 14.2595 8.3314 0
M  V30 2 H 8.1364 1.7242 13.5790 0
M  V30 3 H 13.1437 11.6821 9.9872 0
M  V30 4 H 9.7738 5.7968 10.4286 0
M  V30 5 H 5.3368 16.7173 12.2858 0
M  V30 6 H 4.6273 2.7391 17.9898 0
M  V30 7 H 5.1194 14.6641 10.8908 0
M  V30 8 H 3.4122 3.5407 15.9686 0
M  V30 9 H 18.7002 7.8541 8.3503 0
M  V30 10 H 12.9339 3.1607 3.3116 0
M  V30 11 H 17.6377 5.6150 8.0836 0
M  V30 12 H 13.9917 5.4151 3.3554 0
M  V30 13 H 7.5926 17.6725 12.7320 0
M  V30 14 H 7.0901 2.3761 17.8888 0
M  V30 15 H 9.7892 12.6953 6.5364 0
M  V30 16 H 9.8313 1.0531 11.7215 0
M  V30 17 H 9.6031 16.6045 11.7959 0
M  V30 18 H 8.3252 2.8113 15.7814 0
M  V30 19 H 11.3851 10.8046 6.1516 0
M  V30 20 H 11.3176 1.8109 9.8567 0
M  V30 21 H 7.1411 13.5878 9.9404 0
M  V30 22 H 4.6342 3.9903 13.8774 0
M  V30 23 H 17.2922 9.8954 8.3951 0
M  V30 24 H 11.7839 2.2892 5.3259 0
M  V30 25 H 15.0704 10.9488 8.2883 0
M  V30 26 H 11.0127 2.6201 7.6280 0
M  V30 27 H 15.1974 5.4025 7.8557 0
M  V30 28 H 13.9271 6.7947 5.3977 0
M  V30 29 H 11.2435 7.8084 5.8192 0
M  V30 30 H 10.3364 6.8746 7.0412 0
M  V30 31 H 9.7045 8.4519 6.4715 0
M  V30 32 H 12.8450 6.6797 11.8442 0
M  V30 33 H 14.0344 6.3566 10.5382 0
M  V30 34 H 13.0635 5.0140 11.2190 0
M  V30 35 N 11.5357 12.8519 9.4181 0
M  V30 36 N 9.0127 4.3301 11.6712 0
M  V30 37 N 9.6467 14.4437 10.1856 0
M  V30 38 N 7.2858 3.6259 13.4829 0
M  V30 39 O 11.2712 8.6056 7.7494 0
M  V30 40 O 12.0160 6.3617 10.0125 0
M  V30 41 C 9.5625 14.0197 8.9712 0
M  V30 42 C 8.1077 2.7117 13.1019 0
M  V30 43 C 12.4124 11.8777 9.2004 0
M  V30 44 C 9.8036 4.7383 10.6866 0
M  V30 45 C 6.2256 16.2418 11.8657 0
M  V30 46 C 5.1726 2.9309 17.0632 0
M  V30 47 C 6.1047 15.0962 11.0800 0
M  V30 48 C 4.4924 3.3838 15.9321 0
M  V30 49 C 17.6147 7.7781 8.2597 0
M  V30 50 C 12.8906 3.7597 4.2234 0
M  V30 51 C 17.0116 6.5096 8.1080 0
M  V30 52 C 13.4901 5.0388 4.2497 0
M  V30 53 C 7.4894 16.7745 12.1192 0
M  V30 54 C 6.5499 2.7232 17.0052 0
M  V30 55 C 10.5385 12.4307 7.2853 0
M  V30 56 C 9.8420 2.0966 11.4016 0
M  V30 57 C 8.6264 16.1744 11.5896 0
M  V30 58 C 7.2424 2.9543 15.8203 0
M  V30 59 C 11.4243 11.3825 7.0765 0
M  V30 60 C 10.6593 2.5203 10.3632 0
M  V30 61 C 7.2369 14.4996 10.5349 0
M  V30 62 C 5.1802 3.6324 14.7490 0
M  V30 63 C 16.8344 8.9092 8.2835 0
M  V30 64 C 12.2534 3.2757 5.3406 0
M  V30 65 C 14.6020 9.9671 8.1742 0
M  V30 66 C 11.5159 3.5895 7.6777 0
M  V30 67 C 15.6466 6.3893 7.9784 0
M  V30 68 C 13.4522 5.8119 5.3888 0
M  V30 69 C 10.5890 13.1182 8.5000 0
M  V30 70 C 9.0181 3.0287 12.0293 0
M  V30 71 C 8.5087 15.0460 10.7703 0
M  V30 72 C 6.5586 3.4012 14.6802 0
M  V30 73 C 12.6266 8.5949 7.8317 0
M  V30 74 C 12.0783 5.6243 8.8628 0
M  V30 75 C 12.3684 11.0619 8.0638 0
M  V30 76 C 10.6498 3.8675 9.9754 0
M  V30 77 C 15.4251 8.8188 8.1486 0
M  V30 78 C 12.1938 4.0503 6.5282 0
M  V30 79 C 13.2369 9.8754 8.0018 0
M  V30 80 C 11.4316 4.3518 8.8295 0
M  V30 81 C 14.8146 7.5378 7.9816 0
M  V30 82 C 12.8093 5.3391 6.5584 0
M  V30 83 C 13.3941 7.4444 7.8405 0
M  V30 84 C 12.7488 6.1115 7.7594 0
M  V30 85 C 10.6164 7.8894 6.7207 0
M  V30 86 C 13.0464 6.0832 10.9441 0
M  V30 END ATOM
M  V30 BEGIN BOND
M  V30 1 1 1 41
M  V30 2 1 2 42
M  V30 3 1 3 43
M  V30 4 1 4 44
M  V30 5 1 5 45
M  V30 6 1 6 46
M  V30 7 1 7 47
M  V30 8 1 8 48
M  V30 9 1 9 49
M  V30 10 1 10 50
M  V30 11 1 11 51
M  V30 12 1 12 52
M  V30 13 1 13 53
M  V30 14 1 14 54
M  V30 15 1 15 55
M  V30 16 1 16 56
M  V30 17 1 17 57
M  V30 18 1 18 58
M  V30 19 1 19 59
M  V30 20 1 20 60
M  V30 21 1 21 61
M  V30 22 1 22 62
M  V30 23 1 23 63
M  V30 24 1 24 64
M  V30 25 1 25 65
M  V30 26 1 26 66
M  V30 27 1 27 67
M  V30 28 1 28 68
M  V30 29 1 29 85
M  V30 30 1 30 85
M  V30 31 1 31 85
M  V30 32 1 32 86
M  V30 33 1 33 86
M  V30 34 1 34 86
M  V30 35 1 35 43
M  V30 36 1 35 69
M  V30 37 1 36 44
M  V30 38 1 36 70
M  V30 39 1 37 41
M  V30 40 1 37 71
M  V30 41 1 38 42
M  V30 42 1 38 72
M  V30 43 1 39 73
M  V30 44 1 39 85
M  V30 45 1 40 74
M  V30 46 1 40 86
M  V30 47 2 41 69
M  V30 48 2 42 70
M  V30 49 2 43 75
M  V30 50 2 44 76
M  V30 51 2 45 47
M  V30 52 1 45 53
M  V30 53 2 46 48
M  V30 54 1 46 54
M  V30 55 1 47 61
M  V30 56 1 48 62
M  V30 57 2 49 51
M  V30 58 1 49 63
M  V30 59 2 50 52
M  V30 60 1 50 64
M  V30 61 1 51 67
M  V30 62 1 52 68
M  V30 63 2 53 57
M  V30 64 2 54 58
M  V30 65 2 55 59
M  V30 66 1 55 69
M  V30 67 2 56 60
M  V30 68 1 56 70
M  V30 69 1 57 71
M  V30 70 1 58 72
M  V30 71 1 59 75
M  V30 72 1 60 76
M  V30 73 2 61 71
M  V30 74 2 62 72
M  V30 75 2 63 77
M  V30 76 2 64 78
M  V30 77 1 65 77
M  V30 78 2 65 79
M  V30 79 1 66 78
M  V30 80 2 66 80
M  V30 81 2 67 81
M  V30 82 2 68 82
M  V30 83 1 73 79
M  V30 84 2 73 83
M  V30 85 1 74 80
M  V30 86 2 74 84
M  V30 87 1 75 79
M  V30 88 1 76 80
M  V30 89 1 77 81
M  V30 90 1 78 82
M  V30 91 1 81 83
M  V30 92 1 82 84
M  V30 93 1 83 84
M  V30 END BOND
M  V30 END CTAB
M  END

$$$$
