
     RDKit          3D

  0  0  0  0  0  0  0  0  0  0999 V3000
M  V30 BEGIN CTAB
M  V30 COUNTS 86 93 0 0 0
M  V30 BEGIN ATOM
M  V30 1 H 11.3833 8.5854 5.2604 0
M  V30 2 H 9.2579 13.6421 18.2276 0
M  V30 3 H 15.0548 8.5674 9.2356 0
M  V30 4 H 12.0091 12.0795 13.8411 0
M  V30 5 H 8.3945 3.7181 4.2284 0
M  V30 6 H 3.5673 14.1312 18.1510 0
M  V30 7 H 8.0648 4.3624 6.6086 0
M  V30 8 H 5.0425 15.9912 17.3941 0
M  V30 9 H 19.4129 15.6763 9.3710 0
M  V30 10 H 19.8040 10.0991 16.1487 0
M  V30 11 H 19.1040 15.5547 11.8410 0
M  V30 12 H 20.1651 10.1943 13.6844 0
M  V30 13 H 10.2908 4.6852 2.9338 0
M  V30 14 H 4.4209 11.7937 18.1343 0
M  V30 15 H 12.5895 10.8567 5.6507 0
M  V30 16 H 11.8475 13.6754 18.4810 0
M  V30 17 H 11.8830 6.2464 4.0324 0
M  V30 18 H 6.7256 11.3134 17.3345 0
M  V30 19 H 14.1562 12.1929 7.0769 0
M  V30 20 H 14.0726 13.3011 17.4192 0
M  V30 21 H 9.6505 5.9253 7.7070 0
M  V30 22 H 7.3334 15.5087 16.5667 0
M  V30 23 H 18.1616 14.1329 7.8885 0
M  V30 24 H 17.6287 10.8046 17.1101 0
M  V30 25 H 16.5107 12.3492 7.6101 0
M  V30 26 H 15.3697 11.6375 16.7949 0
M  V30 27 H 17.6006 13.8836 12.8405 0
M  V30 28 H 18.3969 11.0253 12.1848 0
M  V30 29 H 14.2637 8.5580 12.1887 0
M  V30 30 H 15.6122 9.5549 12.7823 0
M  V30 31 H 15.8163 8.5967 11.2916 0
M  V30 32 H 12.9861 14.4455 11.7499 0
M  V30 33 H 14.7724 14.4069 11.8204 0
M  V30 34 H 13.8281 14.8326 13.2866 0
M  V30 35 N 13.6474 8.4221 7.7368 0
M  V30 36 N 10.8218 12.6085 15.4478 0
M  V30 37 N 11.7976 7.0269 6.5788 0
M  V30 38 N 8.4638 13.0995 16.3826 0
M  V30 39 O 14.5511 10.2450 11.1123 0
M  V30 40 O 13.7410 12.8255 12.7135 0
M  V30 41 C 11.9680 8.2069 6.1085 0
M  V30 42 C 9.4291 13.2887 17.2028 0
M  V30 43 C 14.5056 9.1203 8.4744 0
M  V30 44 C 12.0035 12.4131 14.8753 0
M  V30 45 C 9.0914 4.4082 4.7090 0
M  V30 46 C 4.5731 13.9192 17.7826 0
M  V30 47 C 8.9123 4.7623 6.0477 0
M  V30 48 C 5.3984 14.9590 17.3584 0
M  V30 49 C 18.7327 14.9349 9.7952 0
M  V30 50 C 19.0024 10.4551 15.4982 0
M  V30 51 C 18.5591 14.8616 11.1959 0
M  V30 52 C 19.2064 10.5117 14.1012 0
M  V30 53 C 10.1515 4.9497 3.9843 0
M  V30 54 C 5.0487 12.6073 17.7645 0
M  V30 55 C 13.1457 10.3893 6.4657 0
M  V30 56 C 11.9233 13.2988 17.4591 0
M  V30 57 C 11.0404 5.8353 4.5917 0
M  V30 58 C 6.3348 12.3318 17.3046 0
M  V30 59 C 14.0227 11.1234 7.2534 0
M  V30 60 C 13.1586 13.0840 16.8632 0
M  V30 61 C 9.8036 5.6295 6.6692 0
M  V30 62 C 6.6869 14.6953 16.8953 0
M  V30 63 C 18.0406 14.0791 8.9734 0
M  V30 64 C 17.8001 10.8505 16.0320 0
M  V30 65 C 16.3972 12.2596 8.6939 0
M  V30 66 C 15.5249 11.7482 15.7194 0
M  V30 67 C 17.7172 13.9271 11.7563 0
M  V30 68 C 18.2194 10.9773 13.2606 0
M  V30 69 C 12.9492 9.0429 6.7628 0
M  V30 70 C 10.7694 13.0472 16.7216 0
M  V30 71 C 10.8730 6.1608 5.9416 0
M  V30 72 C 7.1454 13.3779 16.8568 0
M  V30 73 C 15.4310 11.1768 10.6347 0
M  V30 74 C 14.7365 12.3376 13.5101 0
M  V30 75 C 14.7022 10.5044 8.3126 0
M  V30 76 C 13.2267 12.6102 15.5440 0
M  V30 77 C 17.1557 13.1134 9.5204 0
M  V30 78 C 16.7669 11.3404 15.1922 0
M  V30 79 C 15.5467 11.3019 9.2161 0
M  V30 80 C 14.5087 12.2452 14.9206 0
M  V30 81 C 17.0023 13.0165 10.9378 0
M  V30 82 C 16.9795 11.4209 13.7830 0
M  V30 83 C 16.1246 12.0255 11.4802 0
M  V30 84 C 15.9347 11.9342 12.9506 0
M  V30 85 C 15.0991 9.1959 11.8800 0
M  V30 86 C 13.8489 14.1999 12.3831 0
M  V30 END ATOM
M  V30 BEGIN BOND
M  V30 1 1 1 41
M  V30 2 1 2 42
M  V30 3 1 3 43
M  V30 4 1 4 44
M  V30 5 1 5 45
M  V30 6 1 6 46
M  V30 7 1 7 47
M  V30 8 1 8 48
M  V30 9 1 9 49
M  V30 10 1 10 50
M  V30 11 1 11 51
M  V30 12 1 12 52
M  V30 13 1 13 53
M  V30 14 1 14 54
M  V30 15 1 15 55
M  V30 16 1 16 56
M  V30 17 1 17 57
M  V30 18 1 18 58
M  V30 19 1 19 59
M  V30 20 1 20 60
M  V30 21 1 21 61
M  V30 22 1 22 62
M  V30 23 1 23 63
M  V30 24 1 24 64
M  V30 25 1 25 65
M  V30 26 1 26 66
M  V30 27 1 27 67
M  V30 28 1 28 68
M  V30 29 1 29 85
M  V30 30 1 30 85
M  V30 31 1 31 85
M  V30 32 1 32 86
M  V30 33 1 33 86
M  V30 34 1 34 86
M  V30 35 1 35 43
M  V30 36 1 35 69
M  V30 37 1 36 44
M  V30 38 1 36 70
M  V30 39 1 37 41
M  V30 40 1 37 71
M  V30 41 1 38 42
M  V30 42 1 38 72
M  V30 43 1 39 73
M  V30 44 1 39 85
M  V30 45 1 40 74
M  V30 46 1 40 86
M  V30 47 2 41 69
M  V30 48 2 42 70
M  V30 49 2 43 75
M  V30 50 2 44 76
M  V30 51 2 45 47
M  V30 52 1 45 53
M  V30 53 2 46 48
M  V30 54 1 46 54
M  V30 55 1 47 61
M  V30 56 1 48 62
M  V30 57 2 49 51
M  V30 58 1 49 63
M  V30 59 2 50 52
M  V30 60 1 50 64
M  V30 61 1 51 67
M  V30 62 1 52 68
M  V30 63 2 53 57
M  V30 64 2 54 58
M  V30 65 2 55 59
M  V30 66 1 55 69
M  V30 67 2 56 60
M  V30 68 1 56 70
M  V30 69 1 57 71
M  V30 70 1 58 72
M  V30 71 1 59 75
M  V30 72 1 60 76
M  V30 73 2 61 71
M  V30 74 2 62 72
M  V30 75 2 63 77
M  V30 76 2 64 78
M  V30 77 1 65 77
M  V30 78 2 65 79
M  V30 79 1 66 78
M  V30 80 2 66 80
M  V30 81 2 67 81
M  V30 82 2 68 82
M  V30 83 1 73 79
M  V30 84 2 73 83
M  V30 85 1 74 80
M  V30 86 2 74 84
M  V30 87 1 75 79
M  V30 88 1 76 80
M  V30 89 1 77 81
M  V30 90 1 78 82
M  V30 91 1 81 83
M  V30 92 1 82 84
M  V30 93 1 83 84
M  V30 END BOND
M  V30 END CTAB
M  END

$$$$
