
     RDKit          3D

  0  0  0  0  0  0  0  0  0  0999 V3000
M  V30 BEGIN CTAB
M  V30 COUNTS 86 93 0 0 0
M  V30 BEGIN ATOM
M  V30 1 H 16.1323 4.7800 6.8587 0
M  V30 2 H 5.6302 10.9115 14.2084 0
M  V30 3 H 13.4662 6.8245 11.0950 0
M  V30 4 H 10.7042 10.1181 15.8876 0
M  V30 5 H 14.5222 5.7583 1.4754 0
M  V30 6 H 4.0891 15.6282 11.4055 0
M  V30 7 H 14.5854 7.9321 2.6864 0
M  V30 8 H 5.9899 14.5315 10.2320 0
M  V30 9 H 18.5088 7.6306 17.5159 0
M  V30 10 H 11.5815 2.6508 19.5022 0
M  V30 11 H 16.3531 7.7740 18.7592 0
M  V30 12 H 13.7289 2.5843 18.2372 0
M  V30 13 H 14.4564 3.6288 2.7659 0
M  V30 14 H 3.6313 15.0854 13.7940 0
M  V30 15 H 17.0890 4.1362 9.1630 0
M  V30 16 H 6.0816 8.5909 15.2352 0
M  V30 17 H 14.3819 3.6784 5.2467 0
M  V30 18 H 5.0915 13.4891 15.0114 0
M  V30 19 H 16.9881 4.4135 11.6496 0
M  V30 20 H 7.7931 6.9352 16.0041 0
M  V30 21 H 14.5358 7.9801 5.1640 0
M  V30 22 H 7.4523 12.9348 11.4508 0
M  V30 23 H 18.5207 6.9639 15.1282 0
M  V30 24 H 9.9327 4.4447 19.0472 0
M  V30 25 H 17.3010 6.3045 13.1165 0
M  V30 26 H 9.2666 6.4230 17.7847 0
M  V30 27 H 14.2246 7.2136 17.6521 0
M  V30 28 H 14.2503 4.2955 16.5506 0
M  V30 29 H 11.5367 4.0864 12.7056 0
M  V30 30 H 12.2601 4.0359 14.3399 0
M  V30 31 H 13.2484 3.5945 12.9093 0
M  V30 32 H 12.8743 9.9266 13.9118 0
M  V30 33 H 13.9098 8.7501 14.7595 0
M  V30 34 H 12.8149 9.7926 15.7012 0
M  V30 35 N 14.3467 6.0973 9.3701 0
M  V30 36 N 8.7990 10.5955 15.2645 0
M  V30 37 N 14.3563 5.8633 6.7808 0
M  V30 38 N 7.2228 12.2364 14.0133 0
M  V30 39 O 12.8070 5.6266 13.1004 0
M  V30 40 O 11.8693 8.3052 14.5880 0
M  V30 41 C 15.3189 5.2814 7.3982 0
M  V30 42 C 6.6841 11.1430 14.4081 0
M  V30 43 C 14.2835 6.2316 10.6908 0
M  V30 44 C 9.7008 9.7298 15.7182 0
M  V30 45 C 14.4837 5.7786 2.5667 0
M  V30 46 C 4.7371 14.9334 11.9443 0
M  V30 47 C 14.5063 6.9976 3.2462 0
M  V30 48 C 5.8097 14.3252 11.2894 0
M  V30 49 C 17.5729 7.3956 17.0049 0
M  V30 50 C 11.7918 3.4150 18.7513 0
M  V30 51 C 16.3507 7.4749 17.7085 0
M  V30 52 C 13.0088 3.3800 18.0336 0
M  V30 53 C 14.4455 4.5877 3.2890 0
M  V30 54 C 4.4803 14.6294 13.2799 0
M  V30 55 C 16.3073 4.7384 9.6299 0
M  V30 56 C 7.1228 8.8850 15.3804 0
M  V30 57 C 14.4084 4.6105 4.6814 0
M  V30 58 C 5.2949 13.7325 13.9680 0
M  V30 59 C 16.2481 4.8970 11.0080 0
M  V30 60 C 8.0745 7.9735 15.8156 0
M  V30 61 C 14.4569 7.0302 4.6370 0
M  V30 62 C 6.6399 13.4410 11.9732 0
M  V30 63 C 17.5813 7.0194 15.6836 0
M  V30 64 C 10.8777 4.4087 18.4993 0
M  V30 65 C 16.3550 6.3049 13.6641 0
M  V30 66 C 10.2055 6.4099 17.2251 0
M  V30 67 C 15.1599 7.1599 17.0922 0
M  V30 68 C 13.3010 4.3372 17.0872 0
M  V30 69 C 15.3397 5.3538 8.8394 0
M  V30 70 C 7.5327 10.1778 15.0646 0
M  V30 71 C 14.3881 5.8337 5.3576 0
M  V30 72 C 6.3880 13.1554 13.3183 0
M  V30 73 C 13.9541 5.9970 13.7436 0
M  V30 74 C 11.6967 7.3670 15.5704 0
M  V30 75 C 15.2237 5.6692 11.5715 0
M  V30 76 C 9.4120 8.3717 15.9517 0
M  V30 77 C 16.3714 6.6841 15.0237 0
M  V30 78 C 11.1449 5.4019 17.5212 0
M  V30 79 C 15.1815 5.9760 13.0109 0
M  V30 80 C 10.4550 7.3879 16.2796 0
M  V30 81 C 15.1375 6.7375 15.7401 0
M  V30 82 C 12.3813 5.3787 16.8053 0
M  V30 83 C 13.9249 6.3660 15.0749 0
M  V30 84 C 12.6401 6.3857 15.8209 0
M  V30 85 C 12.4548 4.2657 13.2804 0
M  V30 86 C 12.9224 9.2300 14.7580 0
M  V30 END ATOM
M  V30 BEGIN BOND
M  V30 1 1 1 41
M  V30 2 1 2 42
M  V30 3 1 3 43
M  V30 4 1 4 44
M  V30 5 1 5 45
M  V30 6 1 6 46
M  V30 7 1 7 47
M  V30 8 1 8 48
M  V30 9 1 9 49
M  V30 10 1 10 50
M  V30 11 1 11 51
M  V30 12 1 12 52
M  V30 13 1 13 53
M  V30 14 1 14 54
M  V30 15 1 15 55
M  V30 16 1 16 56
M  V30 17 1 17 57
M  V30 18 1 18 58
M  V30 19 1 19 59
M  V30 20 1 20 60
M  V30 21 1 21 61
M  V30 22 1 22 62
M  V30 23 1 23 63
M  V30 24 1 24 64
M  V30 25 1 25 65
M  V30 26 1 26 66
M  V30 27 1 27 67
M  V30 28 1 28 68
M  V30 29 1 29 85
M  V30 30 1 30 85
M  V30 31 1 31 85
M  V30 32 1 32 86
M  V30 33 1 33 86
M  V30 34 1 34 86
M  V30 35 1 35 43
M  V30 36 1 35 69
M  V30 37 1 36 44
M  V30 38 1 36 70
M  V30 39 1 37 41
M  V30 40 1 37 71
M  V30 41 1 38 42
M  V30 42 1 38 72
M  V30 43 1 39 73
M  V30 44 1 39 85
M  V30 45 1 40 74
M  V30 46 1 40 86
M  V30 47 2 41 69
M  V30 48 2 42 70
M  V30 49 2 43 75
M  V30 50 2 44 76
M  V30 51 2 45 47
M  V30 52 1 45 53
M  V30 53 2 46 48
M  V30 54 1 46 54
M  V30 55 1 47 61
M  V30 56 1 48 62
M  V30 57 2 49 51
M  V30 58 1 49 63
M  V30 59 2 50 52
M  V30 60 1 50 64
M  V30 61 1 51 67
M  V30 62 1 52 68
M  V30 63 2 53 57
M  V30 64 2 54 58
M  V30 65 2 55 59
M  V30 66 1 55 69
M  V30 67 2 56 60
M  V30 68 1 56 70
M  V30 69 1 57 71
M  V30 70 1 58 72
M  V30 71 1 59 75
M  V30 72 1 60 76
M  V30 73 2 61 71
M  V30 74 2 62 72
M  V30 75 2 63 77
M  V30 76 2 64 78
M  V30 77 1 65 77
M  V30 78 2 65 79
M  V30 79 1 66 78
M  V30 80 2 66 80
M  V30 81 2 67 81
M  V30 82 2 68 82
M  V30 83 1 73 79
M  V30 84 2 73 83
M  V30 85 1 74 80
M  V30 86 2 74 84
M  V30 87 1 75 79
M  V30 88 1 76 80
M  V30 89 1 77 81
M  V30 90 1 78 82
M  V30 91 1 81 83
M  V30 92 1 82 84
M  V30 93 1 83 84
M  V30 END BOND
M  V30 END CTAB
M  END

$$$$
