
     RDKit          3D

  0  0  0  0  0  0  0  0  0  0999 V3000
M  V30 BEGIN CTAB
M  V30 COUNTS 86 93 0 0 0
M  V30 BEGIN ATOM
M  V30 1 H 11.4823 8.5735 5.2536 0
M  V30 2 H 9.2933 13.7697 18.1664 0
M  V30 3 H 15.0447 8.5642 9.2580 0
M  V30 4 H 11.9875 11.9675 13.8966 0
M  V30 5 H 8.4029 3.8060 4.2754 0
M  V30 6 H 3.6333 14.0830 18.1636 0
M  V30 7 H 8.1545 4.3517 6.6665 0
M  V30 8 H 5.0820 15.9466 17.4361 0
M  V30 9 H 19.3866 15.6508 9.4360 0
M  V30 10 H 19.7454 10.0287 16.0546 0
M  V30 11 H 19.0459 15.5336 11.8723 0
M  V30 12 H 20.0977 10.1871 13.6228 0
M  V30 13 H 10.2276 4.8295 2.9645 0
M  V30 14 H 4.4859 11.7695 18.0886 0
M  V30 15 H 12.7177 10.8166 5.6137 0
M  V30 16 H 11.8825 13.8186 18.4014 0
M  V30 17 H 11.8282 6.3501 4.0545 0
M  V30 18 H 6.7645 11.3169 17.2726 0
M  V30 19 H 14.2598 12.1468 7.0366 0
M  V30 20 H 14.0846 13.3723 17.3557 0
M  V30 21 H 9.7475 5.8869 7.7574 0
M  V30 22 H 7.3517 15.4915 16.5975 0
M  V30 23 H 18.1674 14.1157 7.9435 0
M  V30 24 H 17.5951 10.7242 17.0396 0
M  V30 25 H 16.5431 12.3288 7.6397 0
M  V30 26 H 15.3482 11.5911 16.7616 0
M  V30 27 H 17.5263 13.8790 12.8432 0
M  V30 28 H 18.3363 11.0551 12.1600 0
M  V30 29 H 14.2697 8.5466 12.1867 0
M  V30 30 H 15.5246 9.6153 12.8374 0
M  V30 31 H 15.8664 8.6473 11.3926 0
M  V30 32 H 12.9909 14.4275 11.6939 0
M  V30 33 H 14.7673 14.3175 11.7349 0
M  V30 34 H 13.8762 14.8488 13.1833 0
M  V30 35 N 13.6767 8.4032 7.7563 0
M  V30 36 N 10.8194 12.6125 15.4460 0
M  V30 37 N 11.8313 7.0353 6.6119 0
M  V30 38 N 8.4890 13.1130 16.3679 0
M  V30 39 O 14.5275 10.2089 11.0987 0
M  V30 40 O 13.6742 12.8351 12.7156 0
M  V30 41 C 12.0369 8.2005 6.1095 0
M  V30 42 C 9.4564 13.3726 17.1687 0
M  V30 43 C 14.5199 9.1116 8.4931 0
M  V30 44 C 11.9966 12.3663 14.8965 0
M  V30 45 C 9.1014 4.4749 4.7514 0
M  V30 46 C 4.6246 13.8849 17.7895 0
M  V30 47 C 8.9683 4.7750 6.0989 0
M  V30 48 C 5.4361 14.9298 17.3778 0
M  V30 49 C 18.7073 14.9183 9.8418 0
M  V30 50 C 18.9517 10.4028 15.4278 0
M  V30 51 C 18.5146 14.8489 11.2301 0
M  V30 52 C 19.1531 10.4963 14.0422 0
M  V30 53 C 10.1263 5.0488 4.0154 0
M  V30 54 C 5.1013 12.5840 17.7401 0
M  V30 55 C 13.2357 10.3669 6.4456 0
M  V30 56 C 11.9502 13.3945 17.4124 0
M  V30 57 C 11.0201 5.9131 4.6206 0
M  V30 58 C 6.3747 12.3231 17.2652 0
M  V30 59 C 14.0978 11.0984 7.2311 0
M  V30 60 C 13.1728 13.1369 16.8303 0
M  V30 61 C 9.8671 5.6226 6.7185 0
M  V30 62 C 6.7134 14.6806 16.9067 0
M  V30 63 C 18.0334 14.0651 9.0131 0
M  V30 64 C 17.7613 10.7909 15.9754 0
M  V30 65 C 16.4069 12.2471 8.7078 0
M  V30 66 C 15.4996 11.7131 15.6995 0
M  V30 67 C 17.6647 13.9224 11.7733 0
M  V30 68 C 18.1694 10.9840 13.2240 0
M  V30 69 C 13.0085 9.0251 6.7616 0
M  V30 70 C 10.7842 13.1172 16.6957 0
M  V30 71 C 10.9092 6.1891 5.9850 0
M  V30 72 C 7.1817 13.3722 16.8315 0
M  V30 73 C 15.4183 11.1690 10.6318 0
M  V30 74 C 14.6974 12.3318 13.5069 0
M  V30 75 C 14.7385 10.4815 8.3154 0
M  V30 76 C 13.2185 12.5914 15.5394 0
M  V30 77 C 17.1453 13.1026 9.5412 0
M  V30 78 C 16.7301 11.3060 15.1599 0
M  V30 79 C 15.5575 11.2918 9.2203 0
M  V30 80 C 14.4874 12.2204 14.9126 0
M  V30 81 C 16.9690 13.0146 10.9487 0
M  V30 82 C 16.9392 11.4165 13.7597 0
M  V30 83 C 16.0880 12.0276 11.4758 0
M  V30 84 C 15.8933 11.9394 12.9455 0
M  V30 85 C 15.0890 9.2102 11.9228 0
M  V30 86 C 13.8512 14.1838 12.3142 0
M  V30 END ATOM
M  V30 BEGIN BOND
M  V30 1 1 1 41
M  V30 2 1 2 42
M  V30 3 1 3 43
M  V30 4 1 4 44
M  V30 5 1 5 45
M  V30 6 1 6 46
M  V30 7 1 7 47
M  V30 8 1 8 48
M  V30 9 1 9 49
M  V30 10 1 10 50
M  V30 11 1 11 51
M  V30 12 1 12 52
M  V30 13 1 13 53
M  V30 14 1 14 54
M  V30 15 1 15 55
M  V30 16 1 16 56
M  V30 17 1 17 57
M  V30 18 1 18 58
M  V30 19 1 19 59
M  V30 20 1 20 60
M  V30 21 1 21 61
M  V30 22 1 22 62
M  V30 23 1 23 63
M  V30 24 1 24 64
M  V30 25 1 25 65
M  V30 26 1 26 66
M  V30 27 1 27 67
M  V30 28 1 28 68
M  V30 29 1 29 85
M  V30 30 1 30 85
M  V30 31 1 31 85
M  V30 32 1 32 86
M  V30 33 1 33 86
M  V30 34 1 34 86
M  V30 35 1 35 43
M  V30 36 1 35 69
M  V30 37 1 36 44
M  V30 38 1 36 70
M  V30 39 1 37 41
M  V30 40 1 37 71
M  V30 41 1 38 42
M  V30 42 1 38 72
M  V30 43 1 39 73
M  V30 44 1 39 85
M  V30 45 1 40 74
M  V30 46 1 40 86
M  V30 47 2 41 69
M  V30 48 2 42 70
M  V30 49 2 43 75
M  V30 50 2 44 76
M  V30 51 2 45 47
M  V30 52 1 45 53
M  V30 53 2 46 48
M  V30 54 1 46 54
M  V30 55 1 47 61
M  V30 56 1 48 62
M  V30 57 2 49 51
M  V30 58 1 49 63
M  V30 59 2 50 52
M  V30 60 1 50 64
M  V30 61 1 51 67
M  V30 62 1 52 68
M  V30 63 2 53 57
M  V30 64 2 54 58
M  V30 65 2 55 59
M  V30 66 1 55 69
M  V30 67 2 56 60
M  V30 68 1 56 70
M  V30 69 1 57 71
M  V30 70 1 58 72
M  V30 71 1 59 75
M  V30 72 1 60 76
M  V30 73 2 61 71
M  V30 74 2 62 72
M  V30 75 2 63 77
M  V30 76 2 64 78
M  V30 77 1 65 77
M  V30 78 2 65 79
M  V30 79 1 66 78
M  V30 80 2 66 80
M  V30 81 2 67 81
M  V30 82 2 68 82
M  V30 83 1 73 79
M  V30 84 2 73 83
M  V30 85 1 74 80
M  V30 86 2 74 84
M  V30 87 1 75 79
M  V30 88 1 76 80
M  V30 89 1 77 81
M  V30 90 1 78 82
M  V30 91 1 81 83
M  V30 92 1 82 84
M  V30 93 1 83 84
M  V30 END BOND
M  V30 END CTAB
M  END

$$$$
