
     RDKit          3D

  0  0  0  0  0  0  0  0  0  0999 V3000
M  V30 BEGIN CTAB
M  V30 COUNTS 46 49 0 0 0
M  V30 BEGIN ATOM
M  V30 1 H 11.0326 4.0712 9.9538 0
M  V30 2 H 9.7252 14.9773 11.9936 0
M  V30 3 H 12.1368 9.2818 9.3548 0
M  V30 4 H 9.9916 9.7816 13.2922 0
M  V30 5 H 13.6551 0.0747 6.9529 0
M  V30 6 H 8.1865 18.8800 15.8636 0
M  V30 7 H 14.0634 0.8047 9.2741 0
M  V30 8 H 6.7968 17.9678 14.0359 0
M  V30 9 H 12.5947 1.6202 5.3482 0
M  V30 10 H 10.1197 17.5888 16.6899 0
M  V30 11 H 9.7395 5.6527 11.5333 0
M  V30 12 H 10.4828 13.4056 10.0827 0
M  V30 13 H 11.9697 3.8997 6.0515 0
M  V30 14 H 10.6362 15.3859 15.7291 0
M  V30 15 H 9.3151 7.9613 12.2924 0
M  V30 16 H 10.9233 11.0972 9.3223 0
M  V30 17 H 13.3941 3.0699 9.9909 0
M  V30 18 H 7.3100 15.7616 13.0777 0
M  V30 19 N 11.7907 7.2652 9.4065 0
M  V30 20 N 9.7676 11.7856 12.9432 0
M  V30 21 N 12.2547 4.9032 8.4912 0
M  V30 22 N 9.2615 14.1390 13.8385 0
M  V30 23 C 11.4607 4.9628 9.5061 0
M  V30 24 C 9.6236 14.0854 12.6046 0
M  V30 25 C 11.5693 8.5007 9.8321 0
M  V30 26 C 10.0582 10.5553 12.5444 0
M  V30 27 C 13.3781 1.0696 7.2625 0
M  V30 28 C 8.4073 17.9112 15.4458 0
M  V30 29 C 13.6043 1.4787 8.5681 0
M  V30 30 C 7.6266 17.3977 14.4223 0
M  V30 31 C 12.7884 1.9410 6.3597 0
M  V30 32 C 9.4876 17.1805 15.9169 0
M  V30 33 C 10.2483 6.4844 11.0745 0
M  V30 34 C 10.3711 12.5718 10.7570 0
M  V30 35 C 12.4385 3.2230 6.7456 0
M  V30 36 C 9.7698 15.9321 15.3929 0
M  V30 37 C 10.0207 7.7734 11.4998 0
M  V30 38 C 10.6287 11.2843 10.3423 0
M  V30 39 C 13.2251 2.7436 8.9739 0
M  V30 40 C 7.9132 16.1593 13.8771 0
M  V30 41 C 11.1403 6.2548 10.0233 0
M  V30 42 C 9.9298 12.7970 12.0641 0
M  V30 43 C 12.6452 3.6286 8.0609 0
M  V30 44 C 8.9724 15.4040 14.3785 0
M  V30 45 C 10.6947 8.8302 10.8701 0
M  V30 46 C 10.4733 10.2274 11.2516 0
M  V30 END ATOM
M  V30 BEGIN BOND
M  V30 1 1 1 23
M  V30 2 1 2 24
M  V30 3 1 3 25
M  V30 4 1 4 26
M  V30 5 1 5 27
M  V30 6 1 6 28
M  V30 7 1 7 29
M  V30 8 1 8 30
M  V30 9 1 9 31
M  V30 10 1 10 32
M  V30 11 1 11 33
M  V30 12 1 12 34
M  V30 13 1 13 35
M  V30 14 1 14 36
M  V30 15 1 15 37
M  V30 16 1 16 38
M  V30 17 1 17 39
M  V30 18 1 18 40
M  V30 19 1 19 25
M  V30 20 1 19 41
M  V30 21 1 20 26
M  V30 22 1 20 42
M  V30 23 1 21 23
M  V30 24 1 21 43
M  V30 25 1 22 24
M  V30 26 1 22 44
M  V30 27 2 23 41
M  V30 28 2 24 42
M  V30 29 2 25 45
M  V30 30 2 26 46
M  V30 31 2 27 29
M  V30 32 1 27 31
M  V30 33 2 28 30
M  V30 34 1 28 32
M  V30 35 1 29 39
M  V30 36 1 30 40
M  V30 37 2 31 35
M  V30 38 2 32 36
M  V30 39 2 33 37
M  V30 40 1 33 41
M  V30 41 2 34 38
M  V30 42 1 34 42
M  V30 43 1 35 43
M  V30 44 1 36 44
M  V30 45 1 37 45
M  V30 46 1 38 46
M  V30 47 2 39 43
M  V30 48 2 40 44
M  V30 49 1 45 46
M  V30 END BOND
M  V30 END CTAB
M  END

$$$$
