
     RDKit          3D

  0  0  0  0  0  0  0  0  0  0999 V3000
M  V30 BEGIN CTAB
M  V30 COUNTS 46 49 0 0 0
M  V30 BEGIN ATOM
M  V30 1 H 11.0221 4.0423 9.9259 0
M  V30 2 H 9.8370 15.0216 12.0259 0
M  V30 3 H 12.1192 9.2963 9.2957 0
M  V30 4 H 9.9097 9.7616 13.2834 0
M  V30 5 H 13.5744 -0.0393 6.9686 0
M  V30 6 H 8.1556 18.9383 15.8693 0
M  V30 7 H 14.1013 0.7601 9.2681 0
M  V30 8 H 6.7392 17.9926 14.0504 0
M  V30 9 H 12.4247 1.4746 5.3649 0
M  V30 10 H 10.1307 17.6639 16.6868 0
M  V30 11 H 9.8116 5.6166 11.5671 0
M  V30 12 H 10.6251 13.4462 10.1258 0
M  V30 13 H 11.8301 3.7898 6.0309 0
M  V30 14 H 10.6582 15.4342 15.7307 0
M  V30 15 H 9.4000 7.9333 12.3553 0
M  V30 16 H 11.0573 11.1264 9.3517 0
M  V30 17 H 13.4737 3.0722 9.9517 0
M  V30 18 H 7.2652 15.7623 13.0920 0
M  V30 19 N 11.7884 7.2612 9.3799 0
M  V30 20 N 9.7766 11.7930 12.9432 0
M  V30 21 N 12.2446 4.8687 8.4586 0
M  V30 22 N 9.2729 14.1709 13.8392 0
M  V30 23 C 11.4640 4.9392 9.4753 0
M  V30 24 C 9.6936 14.1175 12.6306 0
M  V30 25 C 11.5683 8.5054 9.8006 0
M  V30 26 C 10.0393 10.5504 12.5431 0
M  V30 27 C 13.3103 0.9769 7.2694 0
M  V30 28 C 8.3846 17.9566 15.4489 0
M  V30 29 C 13.6027 1.4233 8.5577 0
M  V30 30 C 7.5928 17.4276 14.4316 0
M  V30 31 C 12.6721 1.8294 6.3679 0
M  V30 32 C 9.4863 17.2368 15.9152 0
M  V30 33 C 10.3027 6.4627 11.0848 0
M  V30 34 C 10.4706 12.5979 10.7949 0
M  V30 35 C 12.3371 3.1304 6.7337 0
M  V30 36 C 9.7792 15.9817 15.3903 0
M  V30 37 C 10.0819 7.7589 11.5222 0
M  V30 38 C 10.7188 11.3002 10.3742 0
M  V30 39 C 13.2480 2.7125 8.9443 0
M  V30 40 C 7.8865 16.1794 13.8852 0
M  V30 41 C 11.1585 6.2468 10.0062 0
M  V30 42 C 9.9913 12.8106 12.0862 0
M  V30 43 C 12.6182 3.5670 8.0297 0
M  V30 44 C 8.9712 15.4525 14.3806 0
M  V30 45 C 10.7161 8.8247 10.8684 0
M  V30 46 C 10.5013 10.2325 11.2568 0
M  V30 END ATOM
M  V30 BEGIN BOND
M  V30 1 1 1 23
M  V30 2 1 2 24
M  V30 3 1 3 25
M  V30 4 1 4 26
M  V30 5 1 5 27
M  V30 6 1 6 28
M  V30 7 1 7 29
M  V30 8 1 8 30
M  V30 9 1 9 31
M  V30 10 1 10 32
M  V30 11 1 11 33
M  V30 12 1 12 34
M  V30 13 1 13 35
M  V30 14 1 14 36
M  V30 15 1 15 37
M  V30 16 1 16 38
M  V30 17 1 17 39
M  V30 18 1 18 40
M  V30 19 1 19 25
M  V30 20 1 19 41
M  V30 21 1 20 26
M  V30 22 1 20 42
M  V30 23 1 21 23
M  V30 24 1 21 43
M  V30 25 1 22 24
M  V30 26 1 22 44
M  V30 27 2 23 41
M  V30 28 2 24 42
M  V30 29 2 25 45
M  V30 30 2 26 46
M  V30 31 2 27 29
M  V30 32 1 27 31
M  V30 33 2 28 30
M  V30 34 1 28 32
M  V30 35 1 29 39
M  V30 36 1 30 40
M  V30 37 2 31 35
M  V30 38 2 32 36
M  V30 39 2 33 37
M  V30 40 1 33 41
M  V30 41 2 34 38
M  V30 42 1 34 42
M  V30 43 1 35 43
M  V30 44 1 36 44
M  V30 45 1 37 45
M  V30 46 1 38 46
M  V30 47 2 39 43
M  V30 48 2 40 44
M  V30 49 1 45 46
M  V30 END BOND
M  V30 END CTAB
M  END

$$$$
