
     RDKit          3D

  0  0  0  0  0  0  0  0  0  0999 V3000
M  V30 BEGIN CTAB
M  V30 COUNTS 80 87 0 0 0
M  V30 BEGIN ATOM
M  V30 1 H 10.7205 8.3373 7.6173 0
M  V30 2 H 11.8294 6.8979 10.4308 0
M  V30 3 H 10.0108 15.6043 7.6921 0
M  V30 4 H 8.9738 0.6847 13.1910 0
M  V30 5 H 13.0818 12.2458 10.5882 0
M  V30 6 H 8.6964 5.2747 10.3854 0
M  V30 7 H 7.2215 19.8053 10.4357 0
M  V30 8 H 7.1159 0.7261 18.6136 0
M  V30 9 H 9.6358 20.2392 10.8651 0
M  V30 10 H 5.1118 1.1192 17.1893 0
M  V30 11 H 17.7940 7.1906 10.4007 0
M  V30 12 H 12.2333 5.0783 2.9567 0
M  V30 13 H 16.5214 5.1912 9.6320 0
M  V30 14 H 13.4765 7.0985 3.7142 0
M  V30 15 H 6.4924 17.5610 9.6360 0
M  V30 16 H 9.3937 1.0938 17.6728 0
M  V30 17 H 10.7550 13.4672 6.4323 0
M  V30 18 H 10.1775 0.6100 10.8736 0
M  V30 19 H 8.1690 15.7696 9.2644 0
M  V30 20 H 9.6587 1.8497 15.3218 0
M  V30 21 H 11.7155 11.1669 6.6424 0
M  V30 22 H 11.0950 1.9811 8.9810 0
M  V30 23 H 11.3037 18.4577 10.5127 0
M  V30 24 H 5.3695 1.8843 14.8589 0
M  V30 25 H 16.7310 9.4281 10.3662 0
M  V30 26 H 10.9266 3.7417 4.5845 0
M  V30 27 H 14.8372 10.8563 9.7319 0
M  V30 28 H 10.2128 3.3363 6.9061 0
M  V30 29 H 14.2000 5.4135 8.8209 0
M  V30 30 H 13.4082 7.8073 6.0799 0
M  V30 31 N 12.0518 13.7031 9.5391 0
M  V30 32 N 8.5650 3.5183 11.4646 0
M  V30 33 N 10.7843 15.9641 9.5972 0
M  V30 34 N 7.7253 2.3090 13.5884 0
M  V30 35 O 11.0544 9.1978 7.9181 0
M  V30 36 O 11.2058 6.1690 10.2828 0
M  V30 37 C 10.6764 15.2902 8.5055 0
M  V30 38 C 8.5538 1.6436 12.8631 0
M  V30 39 C 12.5806 12.4874 9.6480 0
M  V30 40 C 9.0547 4.2477 10.4701 0
M  V30 41 C 7.9577 19.0155 10.2715 0
M  V30 42 C 7.2356 1.0593 17.5807 0
M  V30 43 C 9.3098 19.2569 10.5163 0
M  V30 44 C 6.1125 1.2841 16.7840 0
M  V30 45 C 16.7627 7.3046 10.0611 0
M  V30 46 C 12.1871 5.3792 4.0053 0
M  V30 47 C 16.0397 6.1716 9.6254 0
M  V30 48 C 12.8885 6.5276 4.4363 0
M  V30 49 C 7.5505 17.7612 9.8190 0
M  V30 50 C 8.5100 1.2603 17.0530 0
M  V30 51 C 11.2765 13.1564 7.3394 0
M  V30 52 C 9.8716 1.6478 10.7286 0
M  V30 53 C 8.4901 16.7594 9.5980 0
M  V30 54 C 8.6618 1.6717 15.7323 0
M  V30 55 C 11.8103 11.8825 7.4589 0
M  V30 56 C 10.3729 2.4088 9.6803 0
M  V30 57 C 10.2532 18.2546 10.3143 0
M  V30 58 C 6.2552 1.7124 15.4681 0
M  V30 59 C 16.1744 8.5458 10.0401 0
M  V30 60 C 11.4607 4.6389 4.9075 0
M  V30 61 C 14.2541 9.9818 9.4325 0
M  V30 62 C 10.7073 4.2554 7.2316 0
M  V30 63 C 14.7453 6.2907 9.1743 0
M  V30 64 C 12.8492 6.9279 5.7536 0
M  V30 65 C 11.3842 14.0350 8.4168 0
M  V30 66 C 8.9954 2.2491 11.6280 0
M  V30 67 C 9.8518 17.0035 9.8324 0
M  V30 68 C 7.5338 1.8911 14.9292 0
M  V30 69 C 12.2745 9.0084 8.4494 0
M  V30 70 C 11.2838 5.8266 8.9747 0
M  V30 71 C 12.4587 11.5112 8.6480 0
M  V30 72 C 10.0041 3.7545 9.5633 0
M  V30 73 C 14.8489 8.7070 9.5606 0
M  V30 74 C 11.4037 5.0224 6.2718 0
M  V30 75 C 13.0075 10.1627 8.8619 0
M  V30 76 C 10.6302 4.6294 8.5588 0
M  V30 77 C 14.1203 7.5603 9.1179 0
M  V30 78 C 12.0994 6.1934 6.7036 0
M  V30 79 C 12.8073 7.7366 8.5860 0
M  V30 80 C 12.0276 6.5769 8.0789 0
M  V30 END ATOM
M  V30 BEGIN BOND
M  V30 1 1 1 35
M  V30 2 1 2 36
M  V30 3 1 3 37
M  V30 4 1 4 38
M  V30 5 1 5 39
M  V30 6 1 6 40
M  V30 7 1 7 41
M  V30 8 1 8 42
M  V30 9 1 9 43
M  V30 10 1 10 44
M  V30 11 1 11 45
M  V30 12 1 12 46
M  V30 13 1 13 47
M  V30 14 1 14 48
M  V30 15 1 15 49
M  V30 16 1 16 50
M  V30 17 1 17 51
M  V30 18 1 18 52
M  V30 19 1 19 53
M  V30 20 1 20 54
M  V30 21 1 21 55
M  V30 22 1 22 56
M  V30 23 1 23 57
M  V30 24 1 24 58
M  V30 25 1 25 59
M  V30 26 1 26 60
M  V30 27 1 27 61
M  V30 28 1 28 62
M  V30 29 1 29 63
M  V30 30 1 30 64
M  V30 31 1 31 39
M  V30 32 1 31 65
M  V30 33 1 32 40
M  V30 34 1 32 66
M  V30 35 1 33 37
M  V30 36 1 33 67
M  V30 37 1 34 38
M  V30 38 1 34 68
M  V30 39 1 35 69
M  V30 40 1 36 70
M  V30 41 2 37 65
M  V30 42 2 38 66
M  V30 43 2 39 71
M  V30 44 2 40 72
M  V30 45 2 41 43
M  V30 46 1 41 49
M  V30 47 2 42 44
M  V30 48 1 42 50
M  V30 49 1 43 57
M  V30 50 1 44 58
M  V30 51 2 45 47
M  V30 52 1 45 59
M  V30 53 2 46 48
M  V30 54 1 46 60
M  V30 55 1 47 63
M  V30 56 1 48 64
M  V30 57 2 49 53
M  V30 58 2 50 54
M  V30 59 2 51 55
M  V30 60 1 51 65
M  V30 61 2 52 56
M  V30 62 1 52 66
M  V30 63 1 53 67
M  V30 64 1 54 68
M  V30 65 1 55 71
M  V30 66 1 56 72
M  V30 67 2 57 67
M  V30 68 2 58 68
M  V30 69 2 59 73
M  V30 70 2 60 74
M  V30 71 1 61 73
M  V30 72 2 61 75
M  V30 73 1 62 74
M  V30 74 2 62 76
M  V30 75 2 63 77
M  V30 76 2 64 78
M  V30 77 1 69 75
M  V30 78 2 69 79
M  V30 79 1 70 76
M  V30 80 2 70 80
M  V30 81 1 71 75
M  V30 82 1 72 76
M  V30 83 1 73 77
M  V30 84 1 74 78
M  V30 85 1 77 79
M  V30 86 1 78 80
M  V30 87 1 79 80
M  V30 END BOND
M  V30 END CTAB
M  END

$$$$
