
     RDKit          3D

  0  0  0  0  0  0  0  0  0  0999 V3000
M  V30 BEGIN CTAB
M  V30 COUNTS 56 60 0 0 0
M  V30 BEGIN ATOM
M  V30 1 H 11.8892 14.2543 5.7631 0
M  V30 2 H 6.5161 4.9558 16.3688 0
M  V30 3 H 10.1307 12.9605 10.6945 0
M  V30 4 H 7.8055 6.6697 11.4496 0
M  V30 5 H 16.5556 17.3546 4.9288 0
M  V30 6 H 8.8057 -0.1362 17.9269 0
M  V30 7 H 16.3282 14.8750 4.8646 0
M  V30 8 H 7.2705 -0.6283 16.0289 0
M  V30 9 H 14.9192 18.7132 6.2249 0
M  V30 10 H 9.5299 2.2103 18.3534 0
M  V30 11 H 9.7644 12.7600 5.8134 0
M  V30 12 H 5.7376 7.4351 15.8307 0
M  V30 13 H 13.0974 17.6065 7.4931 0
M  V30 14 H 8.7641 4.0378 16.8622 0
M  V30 15 H 8.1494 11.4419 7.1848 0
M  V30 16 H 5.9349 9.3607 14.2540 0
M  V30 17 H 8.3275 12.4778 11.6914 0
M  V30 18 H 7.4740 10.8059 13.2561 0
M  V30 19 H 14.4848 13.7633 6.1134 0
M  V30 20 H 6.5047 1.1834 14.5411 0
M  V30 21 H 8.0407 9.6131 8.4703 0
M  V30 22 H 7.0930 7.9832 10.0094 0
M  V30 23 N 10.8639 13.6187 8.8864 0
M  V30 24 N 7.1532 5.8460 13.2164 0
M  V30 25 N 12.6295 14.9693 7.5765 0
M  V30 26 N 7.1749 3.7951 14.7575 0
M  V30 27 C 11.8209 14.2781 6.8575 0
M  V30 28 C 6.7415 4.8826 15.2980 0
M  V30 29 C 10.0145 12.9061 9.6137 0
M  V30 30 C 7.3070 6.8732 12.3968 0
M  V30 31 C 15.7522 16.8633 5.4825 0
M  V30 32 C 8.4626 0.6714 17.2763 0
M  V30 33 C 15.6256 15.4752 5.4472 0
M  V30 34 C 7.6082 0.3947 16.2085 0
M  V30 35 C 14.8391 17.6238 6.2138 0
M  V30 36 C 8.8681 1.9842 17.5143 0
M  V30 37 C 9.8142 12.7738 6.9034 0
M  V30 38 C 6.1866 7.3063 14.8445 0
M  V30 39 C 13.8144 17.0103 6.9295 0
M  V30 40 C 8.4276 3.0128 16.6873 0
M  V30 41 C 8.9270 12.0340 7.6709 0
M  V30 42 C 6.3098 8.3765 13.9660 0
M  V30 43 C 8.0922 11.4792 11.3176 0
M  V30 44 C 7.5834 10.5392 12.2029 0
M  V30 45 C 14.5914 14.8510 6.1401 0
M  V30 46 C 7.1733 1.4155 15.3688 0
M  V30 47 C 7.9069 9.8931 9.5167 0
M  V30 48 C 7.3894 8.9588 10.3977 0
M  V30 49 C 10.7932 13.5328 7.5434 0
M  V30 50 C 6.6464 6.0503 14.4486 0
M  V30 51 C 13.6909 15.6201 6.8888 0
M  V30 52 C 7.5764 2.7356 15.6071 0
M  V30 53 C 9.0452 12.0567 9.0674 0
M  V30 54 C 6.9225 8.1797 12.7201 0
M  V30 55 C 8.3064 11.1583 9.9672 0
M  V30 56 C 7.2632 9.2464 11.7659 0
M  V30 END ATOM
M  V30 BEGIN BOND
M  V30 1 1 1 27
M  V30 2 1 2 28
M  V30 3 1 3 29
M  V30 4 1 4 30
M  V30 5 1 5 31
M  V30 6 1 6 32
M  V30 7 1 7 33
M  V30 8 1 8 34
M  V30 9 1 9 35
M  V30 10 1 10 36
M  V30 11 1 11 37
M  V30 12 1 12 38
M  V30 13 1 13 39
M  V30 14 1 14 40
M  V30 15 1 15 41
M  V30 16 1 16 42
M  V30 17 1 17 43
M  V30 18 1 18 44
M  V30 19 1 19 45
M  V30 20 1 20 46
M  V30 21 1 21 47
M  V30 22 1 22 48
M  V30 23 1 23 29
M  V30 24 1 23 49
M  V30 25 1 24 30
M  V30 26 1 24 50
M  V30 27 1 25 27
M  V30 28 1 25 51
M  V30 29 1 26 28
M  V30 30 1 26 52
M  V30 31 2 27 49
M  V30 32 2 28 50
M  V30 33 2 29 53
M  V30 34 2 30 54
M  V30 35 2 31 33
M  V30 36 1 31 35
M  V30 37 2 32 34
M  V30 38 1 32 36
M  V30 39 1 33 45
M  V30 40 1 34 46
M  V30 41 2 35 39
M  V30 42 2 36 40
M  V30 43 2 37 41
M  V30 44 1 37 49
M  V30 45 2 38 42
M  V30 46 1 38 50
M  V30 47 1 39 51
M  V30 48 1 40 52
M  V30 49 1 41 53
M  V30 50 1 42 54
M  V30 51 2 43 44
M  V30 52 1 43 55
M  V30 53 1 44 56
M  V30 54 2 45 51
M  V30 55 2 46 52
M  V30 56 1 47 48
M  V30 57 2 47 55
M  V30 58 2 48 56
M  V30 59 1 53 55
M  V30 60 1 54 56
M  V30 END BOND
M  V30 END CTAB
M  END

$$$$
