
     RDKit          3D

  0  0  0  0  0  0  0  0  0  0999 V3000
M  V30 BEGIN CTAB
M  V30 COUNTS 56 60 0 0 0
M  V30 BEGIN ATOM
M  V30 1 H 11.8719 14.2324 5.7919 0
M  V30 2 H 6.4957 4.9688 16.3410 0
M  V30 3 H 10.1455 12.9338 10.6860 0
M  V30 4 H 7.8678 6.6593 11.4932 0
M  V30 5 H 16.4990 17.3281 4.9806 0
M  V30 6 H 8.7930 -0.0887 17.8630 0
M  V30 7 H 16.2746 14.8714 4.9077 0
M  V30 8 H 7.3108 -0.5878 15.9542 0
M  V30 9 H 14.9003 18.6679 6.2996 0
M  V30 10 H 9.4869 2.2408 18.2985 0
M  V30 11 H 9.7193 12.7710 5.8478 0
M  V30 12 H 5.7036 7.4556 15.7795 0
M  V30 13 H 13.1016 17.5565 7.5662 0
M  V30 14 H 8.7102 4.0551 16.8288 0
M  V30 15 H 8.1312 11.4540 7.2181 0
M  V30 16 H 5.9223 9.3510 14.2008 0
M  V30 17 H 8.3161 12.4496 11.6876 0
M  V30 18 H 7.4879 10.7735 13.2402 0
M  V30 19 H 14.4446 13.7626 6.1374 0
M  V30 20 H 6.5356 1.2111 14.4873 0
M  V30 21 H 8.0517 9.6153 8.4875 0
M  V30 22 H 7.0997 7.9887 10.0113 0
M  V30 23 N 10.8660 13.6077 8.8970 0
M  V30 24 N 7.1605 5.8388 13.2192 0
M  V30 25 N 12.6093 14.9494 7.6011 0
M  V30 26 N 7.1573 3.8144 14.7310 0
M  V30 27 C 11.7989 14.2614 6.8748 0
M  V30 28 C 6.7136 4.8987 15.2806 0
M  V30 29 C 10.0286 12.8797 9.6165 0
M  V30 30 C 7.3441 6.8675 12.4129 0
M  V30 31 C 15.7110 16.8411 5.5321 0
M  V30 32 C 8.4559 0.7062 17.2176 0
M  V30 33 C 15.5834 15.4611 5.4889 0
M  V30 34 C 7.6276 0.4261 16.1416 0
M  V30 35 C 14.8165 17.5926 6.2784 0
M  V30 36 C 8.8428 2.0145 17.4634 0
M  V30 37 C 9.7857 12.7701 6.9239 0
M  V30 38 C 6.1649 7.3200 14.8147 0
M  V30 39 C 13.8060 16.9758 6.9950 0
M  V30 40 C 8.3974 3.0364 16.6478 0
M  V30 41 C 8.9131 12.0275 7.6892 0
M  V30 42 C 6.3038 8.3772 13.9382 0
M  V30 43 C 8.1014 11.4568 11.3215 0
M  V30 44 C 7.6008 10.5174 12.1985 0
M  V30 45 C 14.5569 14.8374 6.1720 0
M  V30 46 C 7.1933 1.4403 15.3091 0
M  V30 47 C 7.9232 9.8810 9.5251 0
M  V30 48 C 7.4097 8.9475 10.3975 0
M  V30 49 C 10.7789 13.5242 7.5537 0
M  V30 50 C 6.6278 6.0557 14.4413 0
M  V30 51 C 13.6650 15.5925 6.9368 0
M  V30 52 C 7.5640 2.7621 15.5583 0
M  V30 53 C 9.0538 12.0374 9.0835 0
M  V30 54 C 6.9474 8.1704 12.7106 0
M  V30 55 C 8.3217 11.1401 9.9781 0
M  V30 56 C 7.2902 9.2294 11.7612 0
M  V30 END ATOM
M  V30 BEGIN BOND
M  V30 1 1 1 27
M  V30 2 1 2 28
M  V30 3 1 3 29
M  V30 4 1 4 30
M  V30 5 1 5 31
M  V30 6 1 6 32
M  V30 7 1 7 33
M  V30 8 1 8 34
M  V30 9 1 9 35
M  V30 10 1 10 36
M  V30 11 1 11 37
M  V30 12 1 12 38
M  V30 13 1 13 39
M  V30 14 1 14 40
M  V30 15 1 15 41
M  V30 16 1 16 42
M  V30 17 1 17 43
M  V30 18 1 18 44
M  V30 19 1 19 45
M  V30 20 1 20 46
M  V30 21 1 21 47
M  V30 22 1 22 48
M  V30 23 1 23 29
M  V30 24 1 23 49
M  V30 25 1 24 30
M  V30 26 1 24 50
M  V30 27 1 25 27
M  V30 28 1 25 51
M  V30 29 1 26 28
M  V30 30 1 26 52
M  V30 31 2 27 49
M  V30 32 2 28 50
M  V30 33 2 29 53
M  V30 34 2 30 54
M  V30 35 2 31 33
M  V30 36 1 31 35
M  V30 37 2 32 34
M  V30 38 1 32 36
M  V30 39 1 33 45
M  V30 40 1 34 46
M  V30 41 2 35 39
M  V30 42 2 36 40
M  V30 43 2 37 41
M  V30 44 1 37 49
M  V30 45 2 38 42
M  V30 46 1 38 50
M  V30 47 1 39 51
M  V30 48 1 40 52
M  V30 49 1 41 53
M  V30 50 1 42 54
M  V30 51 2 43 44
M  V30 52 1 43 55
M  V30 53 1 44 56
M  V30 54 2 45 51
M  V30 55 2 46 52
M  V30 56 1 47 48
M  V30 57 2 47 55
M  V30 58 2 48 56
M  V30 59 1 53 55
M  V30 60 1 54 56
M  V30 END BOND
M  V30 END CTAB
M  END

$$$$
