
     RDKit          3D

  0  0  0  0  0  0  0  0  0  0999 V3000
M  V30 BEGIN CTAB
M  V30 COUNTS 80 87 0 0 0
M  V30 BEGIN ATOM
M  V30 1 H 11.2268 7.1619 10.3108 0
M  V30 2 H 11.2909 9.0541 7.7967 0
M  V30 3 H 4.0863 4.1398 10.8824 0
M  V30 4 H 16.0145 15.4861 9.6617 0
M  V30 5 H 9.4534 4.6596 10.6723 0
M  V30 6 H 12.3162 11.5645 9.3810 0
M  V30 7 H 1.4361 4.8761 15.9347 0
M  V30 8 H 14.5976 20.6080 11.9183 0
M  V30 9 H 1.7595 6.3816 13.9737 0
M  V30 10 H 13.2630 18.9150 13.1650 0
M  V30 11 H 12.0717 5.6311 2.8055 0
M  V30 12 H 16.9757 4.4631 10.0891 0
M  V30 13 H 13.8511 6.9756 3.9170 0
M  V30 14 H 14.8200 3.3857 9.4523 0
M  V30 15 H 2.9735 2.9468 16.2753 0
M  V30 16 H 15.7069 19.9726 9.7797 0
M  V30 17 H 5.0409 4.4852 8.5231 0
M  V30 18 H 16.9022 13.2253 8.7880 0
M  V30 19 H 4.8277 2.5360 14.7035 0
M  V30 20 H 15.4148 17.6941 8.8550 0
M  V30 21 H 6.9929 5.2616 7.1814 0
M  V30 22 H 16.4736 10.7808 8.5806 0
M  V30 23 H 3.6228 5.9759 12.3903 0
M  V30 24 H 12.9831 16.6288 12.2480 0
M  V30 25 H 10.1052 4.8637 4.1099 0
M  V30 26 H 17.1305 6.9380 10.2065 0
M  V30 27 H 8.9370 4.6923 6.2418 0
M  V30 28 H 16.0898 9.1237 9.9496 0
M  V30 29 H 13.6868 7.5517 6.3097 0
M  V30 30 H 12.8680 4.7584 8.8217 0
M  V30 31 N 7.4313 4.3120 10.8976 0
M  V30 32 N 13.5790 13.2069 9.3653 0
M  V30 33 N 5.3980 4.0171 12.5015 0
M  V30 34 N 13.9634 15.7162 9.9601 0
M  V30 35 O 10.4470 6.6502 10.0357 0
M  V30 36 O 11.9525 9.6445 8.1925 0
M  V30 37 C 5.1196 4.1056 11.2475 0
M  V30 38 C 15.0072 15.0567 9.6050 0
M  V30 39 C 8.4876 4.6607 10.1707 0
M  V30 40 C 13.3477 11.8981 9.2748 0
M  V30 41 C 2.2529 4.6958 15.2317 0
M  V30 42 C 14.4711 19.6018 11.5120 0
M  V30 43 C 2.4332 5.5364 14.1337 0
M  V30 44 C 13.7115 18.6561 12.2031 0
M  V30 45 C 11.9779 5.8848 3.8635 0
M  V30 46 C 16.1069 5.0835 9.8571 0
M  V30 47 C 12.9852 6.6473 4.4967 0
M  V30 48 C 14.8866 4.4758 9.4897 0
M  V30 49 C 3.1174 3.6173 15.4248 0
M  V30 50 C 15.0891 19.2469 10.3139 0
M  V30 51 C 6.0354 4.5498 8.9681 0
M  V30 52 C 15.9015 12.8178 8.9424 0
M  V30 53 C 4.1618 3.3810 14.5356 0
M  V30 54 C 14.9323 17.9644 9.7946 0
M  V30 55 C 7.1278 4.9709 8.2250 0
M  V30 56 C 15.6577 11.4576 8.8409 0
M  V30 57 C 3.4684 5.2990 13.2343 0
M  V30 58 C 13.5358 17.3775 11.6822 0
M  V30 59 C 10.8895 5.4580 4.5856 0
M  V30 60 C 16.1968 6.4541 9.9145 0
M  V30 61 C 9.6840 5.3181 6.7357 0
M  V30 62 C 15.1671 8.6735 9.5785 0
M  V30 63 C 12.8944 6.9735 5.8323 0
M  V30 64 C 13.7925 5.2394 9.1441 0
M  V30 65 C 6.2128 4.2749 10.3228 0
M  V30 66 C 14.8417 13.6665 9.2541 0
M  V30 67 C 4.3376 4.2129 13.4232 0
M  V30 68 C 14.1330 17.0309 10.4649 0
M  V30 69 C 10.5696 6.3772 8.7171 0
M  V30 70 C 12.9350 8.8646 8.6930 0
M  V30 71 C 8.3921 5.0710 8.8281 0
M  V30 72 C 14.3677 10.9487 9.0743 0
M  V30 73 C 10.7696 5.7770 5.9632 0
M  V30 74 C 15.0841 7.2654 9.5782 0
M  V30 75 C 9.5550 5.5863 8.0885 0
M  V30 76 C 14.1411 9.4936 9.1369 0
M  V30 77 C 11.7848 6.5502 6.6019 0
M  V30 78 C 13.8698 6.6521 9.1564 0
M  V30 79 C 11.6582 6.8421 7.9971 0
M  V30 80 C 12.8014 7.4847 8.7002 0
M  V30 END ATOM
M  V30 BEGIN BOND
M  V30 1 1 1 35
M  V30 2 1 2 36
M  V30 3 1 3 37
M  V30 4 1 4 38
M  V30 5 1 5 39
M  V30 6 1 6 40
M  V30 7 1 7 41
M  V30 8 1 8 42
M  V30 9 1 9 43
M  V30 10 1 10 44
M  V30 11 1 11 45
M  V30 12 1 12 46
M  V30 13 1 13 47
M  V30 14 1 14 48
M  V30 15 1 15 49
M  V30 16 1 16 50
M  V30 17 1 17 51
M  V30 18 1 18 52
M  V30 19 1 19 53
M  V30 20 1 20 54
M  V30 21 1 21 55
M  V30 22 1 22 56
M  V30 23 1 23 57
M  V30 24 1 24 58
M  V30 25 1 25 59
M  V30 26 1 26 60
M  V30 27 1 27 61
M  V30 28 1 28 62
M  V30 29 1 29 63
M  V30 30 1 30 64
M  V30 31 1 31 39
M  V30 32 1 31 65
M  V30 33 1 32 40
M  V30 34 1 32 66
M  V30 35 1 33 37
M  V30 36 1 33 67
M  V30 37 1 34 38
M  V30 38 1 34 68
M  V30 39 1 35 69
M  V30 40 1 36 70
M  V30 41 2 37 65
M  V30 42 2 38 66
M  V30 43 2 39 71
M  V30 44 2 40 72
M  V30 45 2 41 43
M  V30 46 1 41 49
M  V30 47 2 42 44
M  V30 48 1 42 50
M  V30 49 1 43 57
M  V30 50 1 44 58
M  V30 51 2 45 47
M  V30 52 1 45 59
M  V30 53 2 46 48
M  V30 54 1 46 60
M  V30 55 1 47 63
M  V30 56 1 48 64
M  V30 57 2 49 53
M  V30 58 2 50 54
M  V30 59 2 51 55
M  V30 60 1 51 65
M  V30 61 2 52 56
M  V30 62 1 52 66
M  V30 63 1 53 67
M  V30 64 1 54 68
M  V30 65 1 55 71
M  V30 66 1 56 72
M  V30 67 2 57 67
M  V30 68 2 58 68
M  V30 69 2 59 73
M  V30 70 2 60 74
M  V30 71 1 61 73
M  V30 72 2 61 75
M  V30 73 1 62 74
M  V30 74 2 62 76
M  V30 75 2 63 77
M  V30 76 2 64 78
M  V30 77 1 69 75
M  V30 78 2 69 79
M  V30 79 1 70 76
M  V30 80 2 70 80
M  V30 81 1 71 75
M  V30 82 1 72 76
M  V30 83 1 73 77
M  V30 84 1 74 78
M  V30 85 1 77 79
M  V30 86 1 78 80
M  V30 87 1 79 80
M  V30 END BOND
M  V30 END CTAB
M  END

$$$$
