
     RDKit          3D

  0  0  0  0  0  0  0  0  0  0999 V3000
M  V30 BEGIN CTAB
M  V30 COUNTS 86 93 0 0 0
M  V30 BEGIN ATOM
M  V30 1 H 15.6596 15.7293 9.8254 0
M  V30 2 H 5.2329 5.2927 15.6585 0
M  V30 3 H 12.3778 12.8974 13.0341 0
M  V30 4 H 10.0040 5.1399 13.1533 0
M  V30 5 H 13.6360 17.7247 4.8456 0
M  V30 6 H 0.4772 4.3422 12.5894 0
M  V30 7 H 14.9107 15.6527 5.3855 0
M  V30 8 H 1.8390 2.2725 12.3380 0
M  V30 9 H 12.3078 18.8556 6.6234 0
M  V30 10 H 1.5537 6.4391 13.4002 0
M  V30 11 H 15.8267 10.6494 20.1795 0
M  V30 12 H 16.7481 4.6604 13.5270 0
M  V30 13 H 14.7348 8.4541 19.7502 0
M  V30 14 H 17.4470 6.9950 14.0574 0
M  V30 15 H 16.8104 14.7271 11.9376 0
M  V30 16 H 7.2213 6.2090 17.0564 0
M  V30 17 H 12.2416 17.9320 8.9073 0
M  V30 18 H 3.9756 6.4612 13.9416 0
M  V30 19 H 16.6038 13.1334 13.8620 0
M  V30 20 H 9.6128 6.9579 17.0437 0
M  V30 21 H 15.9117 12.3657 18.3942 0
M  V30 22 H 14.3630 4.0063 13.7723 0
M  V30 23 H 13.7261 7.9610 17.5514 0
M  V30 24 H 15.8056 8.6609 14.7978 0
M  V30 25 H 14.8483 14.7202 7.6866 0
M  V30 26 H 4.2460 2.2922 12.8730 0
M  V30 27 H 15.4315 13.0464 16.0876 0
M  V30 28 H 12.0593 4.5918 14.3459 0
M  V30 29 H 14.6198 10.4574 11.9137 0
M  V30 30 H 14.1297 8.8399 12.5012 0
M  V30 31 H 13.0808 9.7280 11.3532 0
M  V30 32 H 11.0871 10.5551 14.8934 0
M  V30 33 H 11.4821 10.3308 16.6365 0
M  V30 34 H 9.7786 10.3309 16.1021 0
M  V30 35 N 13.4868 14.1384 11.8096 0
M  V30 36 N 8.1469 5.0115 14.0409 0
M  V30 37 N 13.5740 15.7371 9.7645 0
M  V30 38 N 5.6389 4.4099 13.8116 0
M  V30 39 O 13.0184 10.4393 13.2543 0
M  V30 40 O 10.7544 8.6468 15.6388 0
M  V30 41 C 14.7095 15.4327 10.2873 0
M  V30 42 C 5.9762 4.9904 14.9105 0
M  V30 43 C 13.3757 13.2781 12.8167 0
M  V30 44 C 9.4213 5.3875 14.0420 0
M  V30 45 C 13.6133 17.3139 5.8573 0
M  V30 46 C 1.5413 4.3538 12.8351 0
M  V30 47 C 14.3294 16.1570 6.1603 0
M  V30 48 C 2.3052 3.1954 12.6895 0
M  V30 49 C 12.8667 17.9456 6.8523 0
M  V30 50 C 2.1429 5.5258 13.2914 0
M  V30 51 C 15.3831 10.4496 19.2022 0
M  V30 52 C 16.0018 5.3917 13.8438 0
M  V30 53 C 14.7635 9.2040 18.9567 0
M  V30 54 C 16.3948 6.7140 14.1430 0
M  V30 55 C 15.8445 14.3003 12.2151 0
M  V30 56 C 7.8741 5.9961 16.2074 0
M  V30 57 C 12.8297 17.4276 8.1428 0
M  V30 58 C 3.4968 5.5364 13.6111 0
M  V30 59 C 15.7236 13.4203 13.2822 0
M  V30 60 C 9.1984 6.4097 16.1977 0
M  V30 61 C 15.4310 11.4016 18.2124 0
M  V30 62 C 14.6821 5.0319 13.9752 0
M  V30 63 C 14.1989 8.9279 17.7317 0
M  V30 64 C 15.4740 7.6503 14.5574 0
M  V30 65 C 14.3085 15.6407 7.4522 0
M  V30 66 C 3.6623 3.2025 12.9940 0
M  V30 67 C 14.9228 12.0977 15.8975 0
M  V30 68 C 12.3555 5.6253 14.5427 0
M  V30 69 C 14.7042 14.6225 11.4834 0
M  V30 70 C 7.3699 5.3168 15.0978 0
M  V30 71 C 13.5675 16.2809 8.4555 0
M  V30 72 C 4.2638 4.3697 13.4766 0
M  V30 73 C 13.6710 10.6256 14.4413 0
M  V30 74 C 11.7974 7.8908 15.2462 0
M  V30 75 C 14.4755 12.8579 13.5847 0
M  V30 76 C 10.0054 6.1192 15.0864 0
M  V30 77 C 14.8608 11.1463 16.9393 0
M  V30 78 C 13.7128 5.9778 14.3940 0
M  V30 79 C 14.3402 11.8663 14.6662 0
M  V30 80 C 11.4126 6.5345 14.9647 0
M  V30 81 C 14.2283 9.8898 16.6922 0
M  V30 82 C 14.1008 7.3177 14.6877 0
M  V30 83 C 13.6430 9.6438 15.4121 0
M  V30 84 C 13.1197 8.2834 15.1027 0
M  V30 85 C 13.7583 9.8337 12.2104 0
M  V30 86 C 10.8009 10.0416 15.8234 0
M  V30 END ATOM
M  V30 BEGIN BOND
M  V30 1 1 1 41
M  V30 2 1 2 42
M  V30 3 1 3 43
M  V30 4 1 4 44
M  V30 5 1 5 45
M  V30 6 1 6 46
M  V30 7 1 7 47
M  V30 8 1 8 48
M  V30 9 1 9 49
M  V30 10 1 10 50
M  V30 11 1 11 51
M  V30 12 1 12 52
M  V30 13 1 13 53
M  V30 14 1 14 54
M  V30 15 1 15 55
M  V30 16 1 16 56
M  V30 17 1 17 57
M  V30 18 1 18 58
M  V30 19 1 19 59
M  V30 20 1 20 60
M  V30 21 1 21 61
M  V30 22 1 22 62
M  V30 23 1 23 63
M  V30 24 1 24 64
M  V30 25 1 25 65
M  V30 26 1 26 66
M  V30 27 1 27 67
M  V30 28 1 28 68
M  V30 29 1 29 85
M  V30 30 1 30 85
M  V30 31 1 31 85
M  V30 32 1 32 86
M  V30 33 1 33 86
M  V30 34 1 34 86
M  V30 35 1 35 43
M  V30 36 1 35 69
M  V30 37 1 36 44
M  V30 38 1 36 70
M  V30 39 1 37 41
M  V30 40 1 37 71
M  V30 41 1 38 42
M  V30 42 1 38 72
M  V30 43 1 39 73
M  V30 44 1 39 85
M  V30 45 1 40 74
M  V30 46 1 40 86
M  V30 47 2 41 69
M  V30 48 2 42 70
M  V30 49 2 43 75
M  V30 50 2 44 76
M  V30 51 2 45 47
M  V30 52 1 45 49
M  V30 53 2 46 48
M  V30 54 1 46 50
M  V30 55 1 47 65
M  V30 56 1 48 66
M  V30 57 2 49 57
M  V30 58 2 50 58
M  V30 59 1 51 53
M  V30 60 2 51 61
M  V30 61 1 52 54
M  V30 62 2 52 62
M  V30 63 2 53 63
M  V30 64 2 54 64
M  V30 65 2 55 59
M  V30 66 1 55 69
M  V30 67 2 56 60
M  V30 68 1 56 70
M  V30 69 1 57 71
M  V30 70 1 58 72
M  V30 71 1 59 75
M  V30 72 1 60 76
M  V30 73 1 61 77
M  V30 74 1 62 78
M  V30 75 1 63 81
M  V30 76 1 64 82
M  V30 77 2 65 71
M  V30 78 2 66 72
M  V30 79 2 67 77
M  V30 80 1 67 79
M  V30 81 2 68 78
M  V30 82 1 68 80
M  V30 83 2 73 79
M  V30 84 1 73 83
M  V30 85 2 74 80
M  V30 86 1 74 84
M  V30 87 1 75 79
M  V30 88 1 76 80
M  V30 89 1 77 81
M  V30 90 1 78 82
M  V30 91 2 81 83
M  V30 92 2 82 84
M  V30 93 1 83 84
M  V30 END BOND
M  V30 END CTAB
M  END

$$$$
