
     RDKit          3D

  0  0  0  0  0  0  0  0  0  0999 V3000
M  V30 BEGIN CTAB
M  V30 COUNTS 56 60 0 0 0
M  V30 BEGIN ATOM
M  V30 1 H 11.1134 16.9448 13.9606 0
M  V30 2 H 4.9581 3.5514 9.6967 0
M  V30 3 H 10.2544 12.6693 10.8729 0
M  V30 4 H 7.7562 6.9753 12.6982 0
M  V30 5 H 16.3652 19.2821 13.6508 0
M  V30 6 H 6.7100 -1.9329 9.7955 0
M  V30 7 H 15.3040 17.7558 15.2758 0
M  V30 8 H 6.1438 -1.4120 12.1401 0
M  V30 9 H 15.4611 19.4539 11.3613 0
M  V30 10 H 7.0302 -0.0974 8.1755 0
M  V30 11 H 8.8456 15.7067 14.4142 0
M  V30 12 H 4.3584 6.0770 9.3221 0
M  V30 13 H 13.5199 18.1184 10.6954 0
M  V30 14 H 6.7887 2.2425 8.8973 0
M  V30 15 H 7.4843 13.6732 13.9779 0
M  V30 16 H 4.9988 8.4370 9.7690 0
M  V30 17 H 8.1199 11.9857 9.9712 0
M  V30 18 H 7.1067 9.8061 9.4979 0
M  V30 19 H 13.3544 16.4084 14.6129 0
M  V30 20 H 5.8986 0.9140 12.8647 0
M  V30 21 H 7.8624 11.1958 14.1670 0
M  V30 22 H 6.8794 9.0028 13.6925 0
M  V30 23 N 10.6303 14.4169 11.8704 0
M  V30 24 N 6.6480 5.5519 11.7306 0
M  V30 25 N 12.1918 16.3897 12.2621 0
M  V30 26 N 6.1946 3.0819 11.3114 0
M  V30 27 C 11.2038 16.3025 13.0908 0
M  V30 28 C 5.5521 3.8937 10.5377 0
M  V30 29 C 9.9062 13.3321 11.6504 0
M  V30 30 C 6.9880 6.8096 11.9583 0
M  V30 31 C 15.5118 18.6908 13.3604 0
M  V30 32 C 6.6053 -0.9076 10.1117 0
M  V30 33 C 14.9132 17.8363 14.2736 0
M  V30 34 C 6.2910 -0.6137 11.4298 0
M  V30 35 C 15.0056 18.7836 12.0729 0
M  V30 36 C 6.7812 0.1234 9.2015 0
M  V30 37 C 9.1230 15.0084 13.6414 0
M  V30 38 C 5.1068 6.3188 10.0592 0
M  V30 39 C 13.9117 18.0283 11.6948 0
M  V30 40 C 6.6287 1.4368 9.5999 0
M  V30 41 C 8.3734 13.8757 13.4017 0
M  V30 42 C 5.4686 7.6272 10.3047 0
M  V30 43 C 7.8564 11.3303 10.7878 0
M  V30 44 C 7.2747 10.1083 10.5201 0
M  V30 45 C 13.8084 17.0923 13.9095 0
M  V30 46 C 6.1550 0.6986 11.8409 0
M  V30 47 C 7.7004 10.8913 13.1445 0
M  V30 48 C 7.1583 9.6515 12.8757 0
M  V30 49 C 10.2623 15.2483 12.8687 0
M  V30 50 C 5.7270 5.2934 10.7779 0
M  V30 51 C 13.2885 17.1835 12.6134 0
M  V30 52 C 6.3065 1.7418 10.9272 0
M  V30 53 C 8.7735 12.9966 12.3888 0
M  V30 54 C 6.4454 7.8930 11.2710 0
M  V30 55 C 8.0848 11.7341 12.1030 0
M  V30 56 C 6.9463 9.2404 11.5600 0
M  V30 END ATOM
M  V30 BEGIN BOND
M  V30 1 1 1 27
M  V30 2 1 2 28
M  V30 3 1 3 29
M  V30 4 1 4 30
M  V30 5 1 5 31
M  V30 6 1 6 32
M  V30 7 1 7 33
M  V30 8 1 8 34
M  V30 9 1 9 35
M  V30 10 1 10 36
M  V30 11 1 11 37
M  V30 12 1 12 38
M  V30 13 1 13 39
M  V30 14 1 14 40
M  V30 15 1 15 41
M  V30 16 1 16 42
M  V30 17 1 17 43
M  V30 18 1 18 44
M  V30 19 1 19 45
M  V30 20 1 20 46
M  V30 21 1 21 47
M  V30 22 1 22 48
M  V30 23 1 23 29
M  V30 24 1 23 49
M  V30 25 1 24 30
M  V30 26 1 24 50
M  V30 27 1 25 27
M  V30 28 1 25 51
M  V30 29 1 26 28
M  V30 30 1 26 52
M  V30 31 2 27 49
M  V30 32 2 28 50
M  V30 33 2 29 53
M  V30 34 2 30 54
M  V30 35 2 31 33
M  V30 36 1 31 35
M  V30 37 2 32 34
M  V30 38 1 32 36
M  V30 39 1 33 45
M  V30 40 1 34 46
M  V30 41 2 35 39
M  V30 42 2 36 40
M  V30 43 2 37 41
M  V30 44 1 37 49
M  V30 45 2 38 42
M  V30 46 1 38 50
M  V30 47 1 39 51
M  V30 48 1 40 52
M  V30 49 1 41 53
M  V30 50 1 42 54
M  V30 51 2 43 44
M  V30 52 1 43 55
M  V30 53 1 44 56
M  V30 54 2 45 51
M  V30 55 2 46 52
M  V30 56 1 47 48
M  V30 57 2 47 55
M  V30 58 2 48 56
M  V30 59 1 53 55
M  V30 60 1 54 56
M  V30 END BOND
M  V30 END CTAB
M  END

$$$$
