
     RDKit          3D

  0  0  0  0  0  0  0  0  0  0999 V3000
M  V30 BEGIN CTAB
M  V30 COUNTS 86 93 0 0 0
M  V30 BEGIN ATOM
M  V30 1 H 16.0449 15.4119 9.6700 0
M  V30 2 H 4.1214 4.0704 10.7694 0
M  V30 3 H 12.2579 11.5939 9.1678 0
M  V30 4 H 9.4736 4.7083 10.5949 0
M  V30 5 H 14.8785 20.4927 12.0437 0
M  V30 6 H 1.4011 4.7763 15.7596 0
M  V30 7 H 13.5849 18.7979 13.3285 0
M  V30 8 H 1.7804 6.3284 13.8456 0
M  V30 9 H 16.8971 4.6229 10.3304 0
M  V30 10 H 12.4348 4.4629 2.8977 0
M  V30 11 H 14.8692 3.4597 9.4604 0
M  V30 12 H 14.1347 6.0247 3.8370 0
M  V30 13 H 15.8140 19.9000 9.8118 0
M  V30 14 H 2.9262 2.8370 16.0965 0
M  V30 15 H 16.8673 13.2152 8.6425 0
M  V30 16 H 5.1018 4.2923 8.3929 0
M  V30 17 H 15.3985 17.6534 8.8459 0
M  V30 18 H 4.8218 2.4584 14.5643 0
M  V30 19 H 16.3875 10.8039 8.2234 0
M  V30 20 H 7.0716 4.9829 7.0194 0
M  V30 21 H 13.1849 16.5462 12.3713 0
M  V30 22 H 3.6789 5.9454 12.2956 0
M  V30 23 H 16.9954 7.1069 10.2986 0
M  V30 24 H 10.4059 3.9074 4.2131 0
M  V30 25 H 15.9804 9.2328 9.7487 0
M  V30 26 H 9.1114 4.1092 6.2703 0
M  V30 27 H 12.9947 4.7302 8.5242 0
M  V30 28 H 13.8258 7.0313 6.0604 0
M  V30 29 H 11.2544 8.6994 6.1397 0
M  V30 30 H 10.1458 8.7793 7.5517 0
M  V30 31 H 10.4893 10.2510 6.5870 0
M  V30 32 H 11.4350 5.9156 10.9745 0
M  V30 33 H 11.9882 7.5434 10.5183 0
M  V30 34 H 10.5526 7.3683 11.5591 0
M  V30 35 N 13.5538 13.2012 9.2904 0
M  V30 36 N 7.4602 4.3344 10.8099 0
M  V30 37 N 14.0048 15.6790 9.9947 0
M  V30 38 N 5.4268 3.9759 12.3936 0
M  V30 39 O 11.9893 9.7103 7.8056 0
M  V30 40 O 10.2066 6.9164 9.6204 0
M  V30 41 C 15.0270 15.0074 9.6060 0
M  V30 42 C 5.1546 4.0548 11.1380 0
M  V30 43 C 13.2946 11.9121 9.0718 0
M  V30 44 C 8.5169 4.6639 10.0753 0
M  V30 45 C 14.6983 19.5031 11.6182 0
M  V30 46 C 2.2326 4.6073 15.0717 0
M  V30 47 C 13.9622 18.5563 12.3327 0
M  V30 48 C 2.4424 5.4734 13.9997 0
M  V30 49 C 16.0605 5.2065 9.9406 0
M  V30 50 C 12.2802 4.9017 3.8851 0
M  V30 51 C 14.9141 4.5513 9.4440 0
M  V30 52 C 13.2412 5.7883 4.4191 0
M  V30 53 C 15.2208 19.1717 10.3692 0
M  V30 54 C 3.0910 3.5237 15.2633 0
M  V30 55 C 15.8614 12.8118 8.7732 0
M  V30 56 C 6.0882 4.4083 8.8461 0
M  V30 57 C 14.9977 17.9087 9.8274 0
M  V30 58 C 4.1582 3.3053 14.3971 0
M  V30 59 C 15.5891 11.4721 8.5512 0
M  V30 60 C 7.1874 4.7858 8.0874 0
M  V30 61 C 13.7210 17.2968 11.7920 0
M  V30 62 C 3.4976 5.2520 13.1204 0
M  V30 63 C 16.1188 6.5792 9.9169 0
M  V30 64 C 11.1564 4.5938 4.6129 0
M  V30 65 C 15.1026 8.7415 9.3237 0
M  V30 66 C 9.8193 4.8396 6.6696 0
M  V30 67 C 13.8595 5.2652 8.9170 0
M  V30 68 C 13.0700 6.3515 5.6643 0
M  V30 69 C 14.8236 13.6443 9.1821 0
M  V30 70 C 6.2519 4.2271 10.2178 0
M  V30 71 C 14.2294 16.9740 10.5296 0
M  V30 72 C 4.3572 4.1590 13.3065 0
M  V30 73 C 12.9163 8.8447 8.2675 0
M  V30 74 C 10.5660 6.3123 8.4499 0
M  V30 75 C 14.2942 10.9683 8.7615 0
M  V30 76 C 8.4368 4.9547 8.7007 0
M  V30 77 C 15.0480 7.3350 9.3789 0
M  V30 78 C 10.9537 5.1600 5.8972 0
M  V30 79 C 14.0907 9.5040 8.7760 0
M  V30 80 C 9.6175 5.3738 7.9270 0
M  V30 81 C 13.8973 6.6818 8.8563 0
M  V30 82 C 11.9213 6.0566 6.4402 0
M  V30 83 C 12.8186 7.4581 8.3006 0
M  V30 84 C 11.7059 6.6387 7.7329 0
M  V30 85 C 10.9150 9.3194 6.9809 0
M  V30 86 C 11.1000 6.9330 10.7130 0
M  V30 END ATOM
M  V30 BEGIN BOND
M  V30 1 1 1 41
M  V30 2 1 2 42
M  V30 3 1 3 43
M  V30 4 1 4 44
M  V30 5 1 5 45
M  V30 6 1 6 46
M  V30 7 1 7 47
M  V30 8 1 8 48
M  V30 9 1 9 49
M  V30 10 1 10 50
M  V30 11 1 11 51
M  V30 12 1 12 52
M  V30 13 1 13 53
M  V30 14 1 14 54
M  V30 15 1 15 55
M  V30 16 1 16 56
M  V30 17 1 17 57
M  V30 18 1 18 58
M  V30 19 1 19 59
M  V30 20 1 20 60
M  V30 21 1 21 61
M  V30 22 1 22 62
M  V30 23 1 23 63
M  V30 24 1 24 64
M  V30 25 1 25 65
M  V30 26 1 26 66
M  V30 27 1 27 67
M  V30 28 1 28 68
M  V30 29 1 29 85
M  V30 30 1 30 85
M  V30 31 1 31 85
M  V30 32 1 32 86
M  V30 33 1 33 86
M  V30 34 1 34 86
M  V30 35 1 35 43
M  V30 36 1 35 69
M  V30 37 1 36 44
M  V30 38 1 36 70
M  V30 39 1 37 41
M  V30 40 1 37 71
M  V30 41 1 38 42
M  V30 42 1 38 72
M  V30 43 1 39 73
M  V30 44 1 39 85
M  V30 45 1 40 74
M  V30 46 1 40 86
M  V30 47 2 41 69
M  V30 48 2 42 70
M  V30 49 2 43 75
M  V30 50 2 44 76
M  V30 51 2 45 47
M  V30 52 1 45 53
M  V30 53 2 46 48
M  V30 54 1 46 54
M  V30 55 1 47 61
M  V30 56 1 48 62
M  V30 57 2 49 51
M  V30 58 1 49 63
M  V30 59 2 50 52
M  V30 60 1 50 64
M  V30 61 1 51 67
M  V30 62 1 52 68
M  V30 63 2 53 57
M  V30 64 2 54 58
M  V30 65 2 55 59
M  V30 66 1 55 69
M  V30 67 2 56 60
M  V30 68 1 56 70
M  V30 69 1 57 71
M  V30 70 1 58 72
M  V30 71 1 59 75
M  V30 72 1 60 76
M  V30 73 2 61 71
M  V30 74 2 62 72
M  V30 75 2 63 77
M  V30 76 2 64 78
M  V30 77 1 65 77
M  V30 78 2 65 79
M  V30 79 1 66 78
M  V30 80 2 66 80
M  V30 81 2 67 81
M  V30 82 2 68 82
M  V30 83 1 73 79
M  V30 84 2 73 83
M  V30 85 1 74 80
M  V30 86 2 74 84
M  V30 87 1 75 79
M  V30 88 1 76 80
M  V30 89 1 77 81
M  V30 90 1 78 82
M  V30 91 1 81 83
M  V30 92 1 82 84
M  V30 93 1 83 84
M  V30 END BOND
M  V30 END CTAB
M  END

$$$$
