
     RDKit          3D

  0  0  0  0  0  0  0  0  0  0999 V3000
M  V30 BEGIN CTAB
M  V30 COUNTS 86 93 0 0 0
M  V30 BEGIN ATOM
M  V30 1 H 16.0677 15.4201 9.4649 0
M  V30 2 H 4.1513 4.0775 10.7398 0
M  V30 3 H 12.3153 11.6139 9.2748 0
M  V30 4 H 9.4633 4.6475 10.6156 0
M  V30 5 H 14.9027 20.4490 11.9603 0
M  V30 6 H 1.4952 4.7890 15.7626 0
M  V30 7 H 13.6145 18.7632 13.2205 0
M  V30 8 H 1.8183 6.2831 13.8228 0
M  V30 9 H 16.8245 4.6660 10.3345 0
M  V30 10 H 12.4835 4.6129 2.9600 0
M  V30 11 H 14.7887 3.5292 9.5349 0
M  V30 12 H 14.1033 6.2072 3.9109 0
M  V30 13 H 15.8511 19.8671 9.7566 0
M  V30 14 H 3.0367 2.8946 16.1181 0
M  V30 15 H 16.8357 13.2072 8.3863 0
M  V30 16 H 5.1538 4.2579 8.3754 0
M  V30 17 H 15.4707 17.6382 8.7968 0
M  V30 18 H 4.8786 2.4910 14.5579 0
M  V30 19 H 16.3345 10.8052 8.0425 0
M  V30 20 H 7.1255 4.9366 7.0325 0
M  V30 21 H 13.2377 16.5295 12.2645 0
M  V30 22 H 3.6682 5.8833 12.2520 0
M  V30 23 H 16.9598 7.1305 10.2616 0
M  V30 24 H 10.4864 3.9688 4.2542 0
M  V30 25 H 15.9816 9.2562 9.6755 0
M  V30 26 H 9.1799 4.0942 6.2978 0
M  V30 27 H 12.9219 4.7996 8.6300 0
M  V30 28 H 13.7577 7.1651 6.1302 0
M  V30 29 H 11.1978 8.7051 6.1814 0
M  V30 30 H 10.1458 8.7706 7.6232 0
M  V30 31 H 10.4081 10.2313 6.6364 0
M  V30 32 H 11.4338 6.0037 11.0693 0
M  V30 33 H 11.9288 7.5943 10.4697 0
M  V30 34 H 10.5363 7.4686 11.5656 0
M  V30 35 N 13.5888 13.2134 9.2572 0
M  V30 36 N 7.4696 4.2782 10.8152 0
M  V30 37 N 14.0508 15.6710 9.9164 0
M  V30 38 N 5.4388 3.9551 12.3732 0
M  V30 39 O 11.9600 9.7664 7.7994 0
M  V30 40 O 10.1374 6.8696 9.6991 0
M  V30 41 C 15.0605 15.0138 9.4598 0
M  V30 42 C 5.1697 4.0374 11.1138 0
M  V30 43 C 13.3309 11.9237 9.0886 0
M  V30 44 C 8.5240 4.6113 10.0868 0
M  V30 45 C 14.7325 19.4717 11.5381 0
M  V30 46 C 2.3073 4.6158 15.0751 0
M  V30 47 C 13.9993 18.5273 12.2405 0
M  V30 48 C 2.4867 5.4520 13.9840 0
M  V30 49 C 15.9999 5.2512 9.9599 0
M  V30 50 C 12.3099 5.0254 3.9409 0
M  V30 51 C 14.8436 4.6065 9.4992 0
M  V30 52 C 13.2310 5.9332 4.4835 0
M  V30 53 C 15.2624 19.1450 10.2996 0
M  V30 54 C 3.1760 3.5540 15.2760 0
M  V30 55 C 15.8561 12.8092 8.5956 0
M  V30 56 C 6.1232 4.3740 8.8324 0
M  V30 57 C 15.0548 17.8897 9.7595 0
M  V30 58 C 4.2180 3.3260 14.3974 0
M  V30 59 C 15.5751 11.4739 8.4156 0
M  V30 60 C 7.2219 4.7433 8.0893 0
M  V30 61 C 13.7661 17.2775 11.6971 0
M  V30 62 C 3.5150 5.2199 13.0917 0
M  V30 63 C 16.0780 6.6142 9.9150 0
M  V30 64 C 11.2031 4.6671 4.6584 0
M  V30 65 C 15.0943 8.7729 9.2954 0
M  V30 66 C 9.8525 4.8354 6.7024 0
M  V30 67 C 13.7942 5.3236 8.9898 0
M  V30 68 C 13.0358 6.4697 5.7285 0
M  V30 69 C 14.8491 13.6555 9.0657 0
M  V30 70 C 6.2669 4.1888 10.2099 0
M  V30 71 C 14.2790 16.9499 10.4412 0
M  V30 72 C 4.3916 4.1466 13.2837 0
M  V30 73 C 12.8905 8.8855 8.2830 0
M  V30 74 C 10.5480 6.3013 8.5028 0
M  V30 75 C 14.2960 10.9824 8.7237 0
M  V30 76 C 8.4619 4.9079 8.7221 0
M  V30 77 C 15.0139 7.3759 9.3889 0
M  V30 78 C 10.9748 5.2044 5.9434 0
M  V30 79 C 14.0791 9.5295 8.7590 0
M  V30 80 C 9.6333 5.3503 7.9583 0
M  V30 81 C 13.8498 6.7307 8.9040 0
M  V30 82 C 11.9051 6.1229 6.4964 0
M  V30 83 C 12.7803 7.5083 8.3510 0
M  V30 84 C 11.6699 6.6778 7.7925 0
M  V30 85 C 10.8711 9.3220 7.0200 0
M  V30 86 C 11.0702 6.9862 10.7484 0
M  V30 END ATOM
M  V30 BEGIN BOND
M  V30 1 1 1 41
M  V30 2 1 2 42
M  V30 3 1 3 43
M  V30 4 1 4 44
M  V30 5 1 5 45
M  V30 6 1 6 46
M  V30 7 1 7 47
M  V30 8 1 8 48
M  V30 9 1 9 49
M  V30 10 1 10 50
M  V30 11 1 11 51
M  V30 12 1 12 52
M  V30 13 1 13 53
M  V30 14 1 14 54
M  V30 15 1 15 55
M  V30 16 1 16 56
M  V30 17 1 17 57
M  V30 18 1 18 58
M  V30 19 1 19 59
M  V30 20 1 20 60
M  V30 21 1 21 61
M  V30 22 1 22 62
M  V30 23 1 23 63
M  V30 24 1 24 64
M  V30 25 1 25 65
M  V30 26 1 26 66
M  V30 27 1 27 67
M  V30 28 1 28 68
M  V30 29 1 29 85
M  V30 30 1 30 85
M  V30 31 1 31 85
M  V30 32 1 32 86
M  V30 33 1 33 86
M  V30 34 1 34 86
M  V30 35 1 35 43
M  V30 36 1 35 69
M  V30 37 1 36 44
M  V30 38 1 36 70
M  V30 39 1 37 41
M  V30 40 1 37 71
M  V30 41 1 38 42
M  V30 42 1 38 72
M  V30 43 1 39 73
M  V30 44 1 39 85
M  V30 45 1 40 74
M  V30 46 1 40 86
M  V30 47 2 41 69
M  V30 48 2 42 70
M  V30 49 2 43 75
M  V30 50 2 44 76
M  V30 51 2 45 47
M  V30 52 1 45 53
M  V30 53 2 46 48
M  V30 54 1 46 54
M  V30 55 1 47 61
M  V30 56 1 48 62
M  V30 57 2 49 51
M  V30 58 1 49 63
M  V30 59 2 50 52
M  V30 60 1 50 64
M  V30 61 1 51 67
M  V30 62 1 52 68
M  V30 63 2 53 57
M  V30 64 2 54 58
M  V30 65 2 55 59
M  V30 66 1 55 69
M  V30 67 2 56 60
M  V30 68 1 56 70
M  V30 69 1 57 71
M  V30 70 1 58 72
M  V30 71 1 59 75
M  V30 72 1 60 76
M  V30 73 2 61 71
M  V30 74 2 62 72
M  V30 75 2 63 77
M  V30 76 2 64 78
M  V30 77 1 65 77
M  V30 78 2 65 79
M  V30 79 1 66 78
M  V30 80 2 66 80
M  V30 81 2 67 81
M  V30 82 2 68 82
M  V30 83 1 73 79
M  V30 84 2 73 83
M  V30 85 1 74 80
M  V30 86 2 74 84
M  V30 87 1 75 79
M  V30 88 1 76 80
M  V30 89 1 77 81
M  V30 90 1 78 82
M  V30 91 1 81 83
M  V30 92 1 82 84
M  V30 93 1 83 84
M  V30 END BOND
M  V30 END CTAB
M  END

$$$$
