
     RDKit          3D

  0  0  0  0  0  0  0  0  0  0999 V3000
M  V30 BEGIN CTAB
M  V30 COUNTS 86 93 0 0 0
M  V30 BEGIN ATOM
M  V30 1 H 10.2136 17.1787 11.3977 0
M  V30 2 H 9.2056 0.6781 12.5723 0
M  V30 3 H 13.0855 12.6683 11.7910 0
M  V30 4 H 9.6433 5.9542 13.1610 0
M  V30 5 H 10.3812 20.3250 6.6264 0
M  V30 6 H 4.8589 -1.1012 9.2396 0
M  V30 7 H 9.4886 18.0914 6.0847 0
M  V30 8 H 7.2494 -0.7020 8.7687 0
M  V30 9 H 11.6357 20.6680 8.7263 0
M  V30 10 H 3.7911 -0.0024 11.1736 0
M  V30 11 H 14.0894 10.7954 19.7785 0
M  V30 12 H 18.0015 7.0460 13.1260 0
M  V30 13 H 14.1752 8.4710 18.9680 0
M  V30 14 H 17.4167 9.3380 13.8194 0
M  V30 15 H 9.9737 15.9449 13.6238 0
M  V30 16 H 11.3408 1.4529 13.9329 0
M  V30 17 H 12.0429 18.7713 10.2445 0
M  V30 18 H 5.0937 1.4825 12.6248 0
M  V30 19 H 10.6243 14.0096 15.0390 0
M  V30 20 H 12.7984 3.3743 14.4682 0
M  V30 21 H 13.3771 12.6040 18.2636 0
M  V30 22 H 16.2317 5.3330 12.9433 0
M  V30 23 H 13.5636 7.9289 16.6626 0
M  V30 24 H 15.1194 9.9334 14.3564 0
M  V30 25 H 9.8814 16.1987 7.6083 0
M  V30 26 H 8.5607 0.7923 10.2208 0
M  V30 27 H 12.6522 13.3361 16.0632 0
M  V30 28 H 13.9176 4.7027 13.1413 0
M  V30 29 H 13.0324 8.8678 12.0011 0
M  V30 30 H 13.7380 10.4525 11.6417 0
M  V30 31 H 12.2832 9.9049 10.7644 0
M  V30 32 H 10.1544 9.4490 14.4833 0
M  V30 33 H 10.6883 8.8157 16.0669 0
M  V30 34 H 9.1117 8.3342 15.4018 0
M  V30 35 N 12.0159 14.3719 11.4550 0
M  V30 36 N 9.2623 3.9518 13.0886 0
M  V30 37 N 11.2877 16.2759 9.8640 0
M  V30 38 N 7.6862 2.0868 12.3283 0
M  V30 39 O 11.9105 10.5111 12.6273 0
M  V30 40 O 10.6511 7.4330 14.5123 0
M  V30 41 C 10.8308 16.3504 11.0622 0
M  V30 42 C 8.8570 1.6967 12.7097 0
M  V30 43 C 12.3774 13.3543 12.2273 0
M  V30 44 C 10.0637 4.9775 13.3286 0
M  V30 45 C 10.5607 19.4960 7.2916 0
M  V30 46 C 5.4330 -0.4451 9.8736 0
M  V30 47 C 10.0679 18.2377 6.9826 0
M  V30 48 C 6.7762 -0.2233 9.6116 0
M  V30 49 C 11.2661 19.6881 8.4689 0
M  V30 50 C 4.8327 0.1767 10.9577 0
M  V30 51 C 13.8126 10.5781 18.7594 0
M  V30 52 C 16.9734 7.2917 13.3398 0
M  V30 53 C 13.8611 9.2546 18.2964 0
M  V30 54 C 16.6394 8.5937 13.7384 0
M  V30 55 C 10.6501 15.1893 13.2577 0
M  V30 56 C 11.0111 2.4635 13.7544 0
M  V30 57 C 11.4900 18.6285 9.3289 0
M  V30 58 C 5.5638 1.0184 11.7744 0
M  V30 59 C 11.0193 14.1199 14.0414 0
M  V30 60 C 11.8251 3.5382 14.0342 0
M  V30 61 C 13.4192 11.5820 17.9193 0
M  V30 62 C 15.9955 6.3433 13.2389 0
M  V30 63 C 13.5187 8.9518 17.0056 0
M  V30 64 C 15.3458 8.9267 14.0404 0
M  V30 65 C 10.3010 17.1678 7.8267 0
M  V30 66 C 7.5183 0.6025 10.4332 0
M  V30 67 C 12.6560 12.3182 15.7031 0
M  V30 68 C 13.6450 5.6891 13.4841 0
M  V30 69 C 11.1590 15.2855 11.9608 0
M  V30 70 C 9.7388 2.6968 13.2295 0
M  V30 71 C 11.0305 17.3525 8.9993 0
M  V30 72 C 6.9193 1.2323 11.5290 0
M  V30 73 C 12.3734 10.7085 13.9222 0
M  V30 74 C 11.9826 7.2944 14.2239 0
M  V30 75 C 11.9074 13.1625 13.5306 0
M  V30 76 C 11.3893 4.8447 13.7500 0
M  V30 77 C 13.0603 11.3013 16.5833 0
M  V30 78 C 14.6555 6.6588 13.5471 0
M  V30 79 C 12.3243 12.0503 14.3946 0
M  V30 80 C 12.3397 5.9615 13.8259 0
M  V30 81 C 13.1138 9.9635 16.1108 0
M  V30 82 C 14.3138 7.9675 13.9673 0
M  V30 83 C 12.7509 9.6800 14.7602 0
M  V30 84 C 12.9527 8.2764 14.2913 0
M  V30 85 C 12.7975 9.8963 11.7222 0
M  V30 86 C 10.1436 8.5834 15.1507 0
M  V30 END ATOM
M  V30 BEGIN BOND
M  V30 1 1 1 41
M  V30 2 1 2 42
M  V30 3 1 3 43
M  V30 4 1 4 44
M  V30 5 1 5 45
M  V30 6 1 6 46
M  V30 7 1 7 47
M  V30 8 1 8 48
M  V30 9 1 9 49
M  V30 10 1 10 50
M  V30 11 1 11 51
M  V30 12 1 12 52
M  V30 13 1 13 53
M  V30 14 1 14 54
M  V30 15 1 15 55
M  V30 16 1 16 56
M  V30 17 1 17 57
M  V30 18 1 18 58
M  V30 19 1 19 59
M  V30 20 1 20 60
M  V30 21 1 21 61
M  V30 22 1 22 62
M  V30 23 1 23 63
M  V30 24 1 24 64
M  V30 25 1 25 65
M  V30 26 1 26 66
M  V30 27 1 27 67
M  V30 28 1 28 68
M  V30 29 1 29 85
M  V30 30 1 30 85
M  V30 31 1 31 85
M  V30 32 1 32 86
M  V30 33 1 33 86
M  V30 34 1 34 86
M  V30 35 1 35 43
M  V30 36 1 35 69
M  V30 37 1 36 44
M  V30 38 1 36 70
M  V30 39 1 37 41
M  V30 40 1 37 71
M  V30 41 1 38 42
M  V30 42 1 38 72
M  V30 43 1 39 73
M  V30 44 1 39 85
M  V30 45 1 40 74
M  V30 46 1 40 86
M  V30 47 2 41 69
M  V30 48 2 42 70
M  V30 49 2 43 75
M  V30 50 2 44 76
M  V30 51 2 45 47
M  V30 52 1 45 49
M  V30 53 2 46 48
M  V30 54 1 46 50
M  V30 55 1 47 65
M  V30 56 1 48 66
M  V30 57 2 49 57
M  V30 58 2 50 58
M  V30 59 1 51 53
M  V30 60 2 51 61
M  V30 61 1 52 54
M  V30 62 2 52 62
M  V30 63 2 53 63
M  V30 64 2 54 64
M  V30 65 2 55 59
M  V30 66 1 55 69
M  V30 67 2 56 60
M  V30 68 1 56 70
M  V30 69 1 57 71
M  V30 70 1 58 72
M  V30 71 1 59 75
M  V30 72 1 60 76
M  V30 73 1 61 77
M  V30 74 1 62 78
M  V30 75 1 63 81
M  V30 76 1 64 82
M  V30 77 2 65 71
M  V30 78 2 66 72
M  V30 79 2 67 77
M  V30 80 1 67 79
M  V30 81 2 68 78
M  V30 82 1 68 80
M  V30 83 2 73 79
M  V30 84 1 73 83
M  V30 85 2 74 80
M  V30 86 1 74 84
M  V30 87 1 75 79
M  V30 88 1 76 80
M  V30 89 1 77 81
M  V30 90 1 78 82
M  V30 91 2 81 83
M  V30 92 2 82 84
M  V30 93 1 83 84
M  V30 END BOND
M  V30 END CTAB
M  END

$$$$
