
     RDKit          3D

  0  0  0  0  0  0  0  0  0  0999 V3000
M  V30 BEGIN CTAB
M  V30 COUNTS 56 60 0 0 0
M  V30 BEGIN ATOM
M  V30 1 H 11.6222 14.4966 5.8559 0
M  V30 2 H 6.6293 4.8461 16.3342 0
M  V30 3 H 10.2505 12.8783 10.8107 0
M  V30 4 H 7.6727 6.6981 11.3986 0
M  V30 5 H 16.3871 17.2589 4.7356 0
M  V30 6 H 8.7845 -0.2656 17.7693 0
M  V30 7 H 16.0821 14.7872 4.7373 0
M  V30 8 H 7.2119 -0.7074 15.8901 0
M  V30 9 H 14.8917 18.6908 6.1202 0
M  V30 10 H 9.6242 2.0484 18.1614 0
M  V30 11 H 9.4071 13.1350 5.9866 0
M  V30 12 H 5.9031 7.3581 15.9301 0
M  V30 13 H 13.1110 17.6667 7.5103 0
M  V30 14 H 8.8867 3.9027 16.6872 0
M  V30 15 H 7.8631 11.7691 7.3979 0
M  V30 16 H 6.0741 9.3368 14.4151 0
M  V30 17 H 8.4955 12.4485 11.9160 0
M  V30 18 H 7.6602 10.7236 13.4311 0
M  V30 19 H 14.2788 13.7593 6.1114 0
M  V30 20 H 6.4861 1.1301 14.4122 0
M  V30 21 H 7.8082 9.8253 8.5504 0
M  V30 22 H 6.9073 8.1333 10.0559 0
M  V30 23 N 10.8173 13.6900 9.0038 0
M  V30 24 N 7.1290 5.8297 13.1833 0
M  V30 25 N 12.5439 15.0431 7.6413 0
M  V30 26 N 7.1968 3.7303 14.6626 0
M  V30 27 C 11.6358 14.4550 6.9521 0
M  V30 28 C 6.8067 4.8071 15.2527 0
M  V30 29 C 10.0169 12.9405 9.7493 0
M  V30 30 C 7.2510 6.8803 12.3871 0
M  V30 31 C 15.6074 16.8036 5.3505 0
M  V30 32 C 8.4595 0.5531 17.1233 0
M  V30 33 C 15.4350 15.4202 5.3487 0
M  V30 34 C 7.5811 0.3052 16.0677 0
M  V30 35 C 14.7717 17.6049 6.1293 0
M  V30 36 C 8.9246 1.8485 17.3466 0
M  V30 37 C 9.5565 13.0553 7.0655 0
M  V30 38 C 6.2890 7.2531 14.9143 0
M  V30 39 C 13.7716 17.0374 6.9150 0
M  V30 40 C 8.5010 2.8924 16.5305 0
M  V30 41 C 8.7082 12.2894 7.8529 0
M  V30 42 C 6.3959 8.3516 14.0705 0
M  V30 43 C 8.1633 11.4962 11.4983 0
M  V30 44 C 7.6706 10.5264 12.3571 0
M  V30 45 C 14.4249 14.8425 6.1138 0
M  V30 46 C 7.1673 1.3403 15.2352 0
M  V30 47 C 7.7600 10.0419 9.6193 0
M  V30 48 C 7.2673 9.0733 10.4772 0
M  V30 49 C 10.6230 13.7189 7.6707 0
M  V30 50 C 6.6946 6.0019 14.4473 0
M  V30 51 C 13.5965 15.6527 6.8997 0
M  V30 52 C 7.6092 2.6465 15.4758 0
M  V30 53 C 8.9581 12.1856 9.2277 0
M  V30 54 C 6.9258 8.1832 12.7828 0
M  V30 55 C 8.2521 11.2553 10.1189 0
M  V30 56 C 7.2506 9.2834 11.8644 0
M  V30 END ATOM
M  V30 BEGIN BOND
M  V30 1 1 1 27
M  V30 2 1 2 28
M  V30 3 1 3 29
M  V30 4 1 4 30
M  V30 5 1 5 31
M  V30 6 1 6 32
M  V30 7 1 7 33
M  V30 8 1 8 34
M  V30 9 1 9 35
M  V30 10 1 10 36
M  V30 11 1 11 37
M  V30 12 1 12 38
M  V30 13 1 13 39
M  V30 14 1 14 40
M  V30 15 1 15 41
M  V30 16 1 16 42
M  V30 17 1 17 43
M  V30 18 1 18 44
M  V30 19 1 19 45
M  V30 20 1 20 46
M  V30 21 1 21 47
M  V30 22 1 22 48
M  V30 23 1 23 29
M  V30 24 1 23 49
M  V30 25 1 24 30
M  V30 26 1 24 50
M  V30 27 1 25 27
M  V30 28 1 25 51
M  V30 29 1 26 28
M  V30 30 1 26 52
M  V30 31 2 27 49
M  V30 32 2 28 50
M  V30 33 2 29 53
M  V30 34 2 30 54
M  V30 35 2 31 33
M  V30 36 1 31 35
M  V30 37 2 32 34
M  V30 38 1 32 36
M  V30 39 1 33 45
M  V30 40 1 34 46
M  V30 41 2 35 39
M  V30 42 2 36 40
M  V30 43 2 37 41
M  V30 44 1 37 49
M  V30 45 2 38 42
M  V30 46 1 38 50
M  V30 47 1 39 51
M  V30 48 1 40 52
M  V30 49 1 41 53
M  V30 50 1 42 54
M  V30 51 2 43 44
M  V30 52 1 43 55
M  V30 53 1 44 56
M  V30 54 2 45 51
M  V30 55 2 46 52
M  V30 56 1 47 48
M  V30 57 2 47 55
M  V30 58 2 48 56
M  V30 59 1 53 55
M  V30 60 1 54 56
M  V30 END BOND
M  V30 END CTAB
M  END

$$$$
