242

Zn         5.46000        5.45000       39.00000
O          4.16600        4.04300       34.49500
H          4.76700        4.34800       34.02800
N          4.74000        7.26100       39.92200
N          3.75400        6.00700       37.77100
C          5.30000        7.88600       41.05600
C          5.36600        7.20400       42.26400
H          5.05100        6.30900       42.31100
C          5.87600        7.79900       43.39300
H          5.82500        7.35100       44.22900
C          6.47500        9.06800       43.31400
H          6.90900        9.44300       44.07100
C          6.42300        9.75700       42.12800
H          6.76900       10.64100       42.08200
C          5.85900        9.16500       40.97400
H          5.85900        9.63400       40.14800
C          3.93400        7.93500       39.17300
H          3.68100        8.82300       39.39800
C          3.41600        7.28000       37.94900
C          2.61000        7.95200       37.03100
H          2.34300        8.84900       37.19300
C          2.20600        7.30100       35.88900
H          1.72100        7.77300       35.22300
C          2.50500        5.95600       35.70400
C          3.32600        5.36400       36.68800
H          3.58800        4.45900       36.56900
C          2.12200        5.22200       34.45800
C          0.90800        5.46800       33.87700
H          0.33500        6.12100       34.26100
C          0.48400        4.77700       32.72300
C         -0.80400        5.00900       32.14700
H         -1.38000        5.66800       32.51600
C         -1.20500        4.26900       31.04800
H         -2.05100        4.43200       30.64800
C         -0.35800        3.27400       30.52500
H         -0.66200        2.73300       29.80500
C          0.88400        3.07300       31.03100
H          1.46700        2.43900       30.62900
C          1.31500        3.82300       32.17500
C          2.62800        3.55300       32.73900
C          2.97200        4.29600       33.88700
O          7.18700        4.81100       34.65200
H          7.02800        5.36100       34.06500
N          4.34700        3.90000       40.07400
N          5.87100        3.65700       37.87600
C          3.66000        4.01600       41.29700
C          2.63300        4.96400       41.38800
H          2.37200        5.47500       40.63100
C          2.00700        5.13700       42.61000
H          1.30400        5.77100       42.69700
C          2.40200        4.38600       43.70900
H          1.97700        4.52600       44.54700
C          3.38100        3.46000       43.60900
H          3.63700        2.96100       44.37500
C          4.02400        3.23100       42.38000
H          4.68900        2.55700       42.29400
C          4.38700        2.75500       39.50600
H          3.93400        2.01700       39.89900
C          5.13100        2.56900       38.24200
C          5.08900        1.41200       37.50200
H          4.60500        0.65500       37.81100
C          5.77400        1.37600       36.28900
H          5.73000        0.60100       35.74100
C          6.49700        2.44100       35.89600
C          6.49400        3.57600       36.71500
H          6.97300        4.33900       36.41600
C          7.42300        2.45600       34.74000
C          7.83900        1.27000       34.19300
H          7.56300        0.44500       34.57600
C          8.68000        1.27900       33.06000
C          9.07100        0.06700       32.44900
H          8.79800       -0.76500       32.81800
C          9.83900        0.09900       31.32800
H         10.11500       -0.71900       30.93100
C         10.23500        1.31100       30.74400
H         10.79400        1.30700       29.97600
C          9.81800        2.49700       31.27800
H         10.07500        3.31700       30.87300
C          9.00200        2.50400       32.43700
C          8.44300        3.73700       32.92300
C          7.69300        3.68600       34.10600
O          6.67600        5.29700       31.11600
H          6.21800        5.92600       30.85800
N          5.54900        7.45400       24.93500
N          6.59300        6.72800       27.36200
C          5.21600        7.80200       23.59600
C          3.96700        7.43200       23.09200
H          3.34000        6.97100       23.63700
C          3.65900        7.75500       21.77200
H          2.81100        7.51200       21.42000
C          4.55700        8.41700       20.96800
H          4.33300        8.61900       20.06700
C          5.76200        8.78000       21.46800
H          6.38500        9.23300       20.91300
C          6.09800        8.49100       22.79600
H          6.93600        8.77100       23.14500
C          6.07400        8.35000       25.67000
H          6.12300        9.24200       25.34800
C          6.60900        8.03700       27.01400
C          7.06100        9.02000       27.84700
H          7.03000        9.93200       27.58500
C          7.56900        8.65000       29.09600
H          7.87500        9.31700       29.70000
C          7.62700        7.34400       29.44500
C          7.10900        6.39700       28.53900
H          7.13000        5.47900       28.78200
C          8.31900        6.89200       30.69700
C          9.41400        7.59100       31.14200
H          9.65000        8.40600       30.71600
C         10.19700        7.12100       32.22100
C         11.25700        7.90700       32.73500
H         11.43900        8.76300       32.36400
C         12.01800        7.43200       33.76600
H         12.74100        7.95200       34.09500
C         11.74200        6.18800       34.34200
H         12.26800        5.87400       35.06800
C         10.71500        5.42100       33.86100
H         10.54200        4.57400       34.25600
C          9.91300        5.86200       32.79700
C          8.75600        5.13100       32.34400
C          7.93200        5.71800       31.37200
O          4.04300        4.16600       30.40900
H          4.34800        4.76700       30.87500
N          7.26100        4.74000       24.98200
N          6.00700        3.75400       27.13200
C          7.88600        5.30000       23.84800
C          7.20400        5.36600       22.64000
H          6.30900        5.05100       22.59300
C          7.79900        5.87600       21.51100
H          7.35100        5.82500       20.67500
C          9.06800        6.47500       21.59000
H          9.44300        6.90900       20.83300
C          9.75700        6.42300       22.77600
H         10.64100        6.76900       22.82200
C          9.16500        5.85900       23.92900
H          9.63400        5.85900       24.75600
C          7.93500        3.93400       25.73100
H          8.82300        3.68100       25.50500
C          7.28000        3.41600       26.95400
C          7.95200        2.61000       27.87300
H          8.84900        2.34300       27.71100
C          7.30100        2.20600       29.01500
H          7.77300        1.72100       29.68100
C          5.95600        2.50500       29.20000
C          5.36400        3.32600       28.21600
H          4.45900        3.58800       28.33400
C          5.22200        2.12200       30.44600
C          5.46800        0.90800       31.02700
H          6.12100        0.33500       30.64300
C          4.77700        0.48400       32.18100
C          5.00900       -0.80400       32.75700
H          5.66800       -1.38000       32.38800
C          4.26900       -1.20500       33.85500
H          4.43200       -2.05100       34.25500
C          3.27400       -0.35800       34.37900
H          2.73300       -0.66200       35.09900
C          3.07300        0.88400       33.87300
H          2.43900        1.46700       34.27500
C          3.82300        1.31500       32.72800
C          3.55300        2.62800       32.16500
C          4.29600        2.97200       31.01700
Zn         5.45000        5.46000       25.90400
O          4.81100        7.18700       30.25200
H          5.36100        7.02800       30.83900
N          3.90000        4.34700       24.83000
N          3.65700        5.87100       27.02800
C          4.01600        3.66000       23.60600
C          4.96400        2.63300       23.51600
H          5.47500        2.37200       24.27300
C          5.13700        2.00700       22.29400
H          5.77100        1.30400       22.20700
C          4.38600        2.40200       21.19500
H          4.52600        1.97700       20.35700
C          3.46000        3.38100       21.29500
H          2.96100        3.63700       20.52800
C          3.23100        4.02400       22.52400
H          2.55700        4.68900       22.61000
C          2.75500        4.38700       25.39800
H          2.01700        3.93400       25.00500
C          2.56900        5.13100       26.66200
C          1.41200        5.08900       27.40100
H          0.65500        4.60500       27.09300
C          1.37600        5.77400       28.61500
H          0.60100        5.73000       29.16300
C          2.44100        6.49700       29.00700
C          3.57600        6.49400       28.18900
H          4.33900        6.97300       28.48800
C          2.45600        7.42300       30.16400
C          1.27000        7.83900       30.71000
H          0.44500        7.56300       30.32800
C          1.27900        8.68000       31.84400
C          0.06700        9.07100       32.45500
H         -0.76500        8.79800       32.08600
C          0.09900        9.83900       33.57500
H         -0.71900       10.11500       33.97200
C          1.31100       10.23500       34.15900
H          1.30700       10.79400       34.92800
C          2.49700        9.81800       33.62600
H          3.31700       10.07500       34.03100
C          2.50400        9.00200       32.46700
C          3.73700        8.44300       31.98100
C          3.68600        7.69300       30.79800
O          5.29700        6.67600       33.78800
H          5.92600        6.21800       34.04600
N          7.45400        5.54900       39.96800
N          6.72800        6.59300       37.54200
C          7.80200        5.21600       41.30800
C          7.43200        3.96700       41.81200
H          6.97100        3.34000       41.26700
C          7.75500        3.65900       43.13100
H          7.51200        2.81100       43.48300
C          8.41700        4.55700       43.93600
H          8.61900        4.33300       44.83700
C          8.78000        5.76200       43.43600
H          9.23300        6.38500       43.99100
C          8.49100        6.09800       42.10800
H          8.77100        6.93600       41.75900
C          8.35000        6.07400       39.23400
H          9.24200        6.12300       39.55500
C          8.03700        6.60900       37.89000
C          9.02000        7.06100       37.05700
H          9.93200        7.03000       37.31900
C          8.65000        7.56900       35.80800
H          9.31700        7.87500       35.20400
C          7.34400        7.62700       35.45900
C          6.39700        7.10900       36.36500
H          5.47900        7.13000       36.12200
C          6.89200        8.31900       34.20700
C          7.59100        9.41400       33.76200
H          8.40600        9.65000       34.18800
C          7.12100       10.19700       32.68300
C          7.90700       11.25700       32.16900
H          8.76300       11.43900       32.53900
C          7.43200       12.01800       31.13800
H          7.95200       12.74100       30.80900
C          6.18800       11.74200       30.56200
H          5.87400       12.26800       29.83600
C          5.42100       10.71500       31.04200
H          4.57400       10.54200       30.64800
C          5.86200        9.91300       32.10700
C          5.13100        8.75600       32.56000
C          5.71800        7.93200       33.53200
