474
m6_l1
Pd   -5.080300    5.771000    7.453300
Pd   -6.641300   -8.226800    1.839000
Pd    5.095600   -5.775900   -7.463700
Pd    6.647400    8.228600   -1.839100
Pd    6.726800   -3.746000    7.458500
Pd   -6.718700    3.750000   -7.464100
 C   -6.683400    3.394200    6.791500
 N   -6.325800    4.210100    7.797300
 C   -6.790600    3.964400    9.033700
 C   -7.626500    2.895500    9.303700
 C   -8.008300    2.022900    8.272700
 C   -8.884900    0.865100    8.521800
 C   -9.868600    0.925700    9.534000
 C  -10.717400   -0.141900    9.802300
 C  -10.546500   -1.284100    9.032800
 O  -11.265300   -2.432000    9.149100
 C  -10.776700   -3.297900    8.221900
 C  -11.226900   -4.593200    8.009100
 C  -10.583400   -5.324000    7.017000
 C   -9.529300   -4.779800    6.249700
 C   -8.874100   -5.592900    5.210000
 C   -8.330800   -5.008200    4.055200
 C   -7.712200   -5.798200    3.103700
 N   -7.602600   -7.129900    3.245300
 C   -8.117900   -7.714900    4.339300
 C   -8.756100   -6.986600    5.327700
 C   -9.103000   -3.465300    6.483100
 C   -9.728300   -2.721400    7.480700
 C   -9.575500   -1.384700    8.018900
 C   -8.741700   -0.300400    7.756700
 C   -7.510300    2.303900    6.990400
 H   -6.296800    3.632000    5.799100
 H   -6.472500    4.642100    9.828100
 H   -7.952500    2.737100   10.331700
 H   -9.990600    1.845100   10.109700
 H  -11.483500   -0.085200   10.576300
 H  -12.048200   -5.014200    8.589900
 H  -10.927400   -6.339600    6.813100
 H   -8.405200   -3.935900    3.873400
 H   -7.294200   -5.358300    2.196400
 H   -8.005200   -8.797300    4.424700
 H   -9.134300   -7.516200    6.202100
 H   -8.274500   -3.037400    5.915900
 H   -7.970200   -0.373200    6.988100
 H   -7.781300    1.691600    6.130100
 C   -2.547200    7.089900    6.747800
 N   -3.823700    7.320400    7.099500
 C   -4.256300    8.588900    7.193600
 C   -3.427600    9.666600    6.936700
 C   -2.092600    9.453900    6.558400
 C   -1.183400   10.574500    6.260300
 C   -1.343100   11.812600    6.921900
 C   -0.510300   12.896600    6.669500
 C    0.486600   12.710800    5.722200
 O    1.388400   13.648300    5.327600
 C    2.174600   13.065400    4.384200
 C    3.220900   13.680800    3.711400
 C    3.896300   12.913200    2.769600
 C    3.550000   11.568100    2.511600
 C    4.294300   10.793700    1.503000
 C    4.477300    9.407600    1.630100
 C    5.171400    8.708200    0.659800
 N    5.683900    9.313600   -0.424800
 C    5.526700   10.640200   -0.567500
 C    4.849600   11.403000    0.367200
 C    2.493200   10.972400    3.213300
 C    1.796900   11.729600    4.152100
 C    0.676000   11.494300    5.040100
 C   -0.161100   10.415700    5.314800
 C   -1.666000    8.119200    6.471800
 H   -2.226500    6.047800    6.692600
 H   -5.300700    8.738900    7.474200
 H   -3.844600   10.671300    7.008300
 H   -2.125200   11.921900    7.675300
 H   -0.630800   13.846000    7.192000
 H    3.500600   14.714700    3.915800
 H    4.736400   13.362600    2.237000
 H    4.103000    8.863100    2.497100
 H    5.330400    7.632100    0.750400
 H    5.949400   11.097700   -1.463800
 H    4.736500   12.471600    0.183400
 H    2.196700    9.942000    3.008600
 H   -0.038300    9.474100    4.776600
 H   -0.637400    7.867500    6.212600
 C   -3.290800    3.815200    8.722300
 N   -3.803500    5.050600    8.850700
 C   -3.455100    5.796100    9.912700
 C   -2.584100    5.329800   10.881500
 C   -2.029700    4.045300   10.768900
 C   -1.090400    3.512700   11.771500
 C   -1.197100    3.906200   13.124100
 C   -0.339400    3.418900   14.103700
 C    0.641800    2.529500   13.688500
 O    1.574400    1.948300   14.489000
 C    2.340400    1.157900   13.690900
 C    3.407500    0.376400   14.111100
 C    4.060300   -0.368200   13.135300
 C    3.671100   -0.329100   11.777900
 C    4.397500   -1.128200   10.775500
 C    4.533100   -0.688500    9.449100
 C    5.215400   -1.462400    8.528400
 N    5.760700   -2.645200    8.858200
 C    5.647400   -3.087800   10.121600
 C    4.984500   -2.362200   11.095800
 C    2.591200    0.472600   11.384300
 C    1.917800    1.216600   12.349800
 C    0.785600    2.120700   12.349400
 C   -0.090200    2.610800   11.384000
 C   -2.410400    3.288400    9.649400
 H   -3.604000    3.233600    7.852800
 H   -3.883100    6.798300    9.978900
 H   -2.324500    5.990100   11.709200
 H   -1.992400    4.591600   13.422800
 H   -0.435500    3.715000   15.148700
 H    3.721300    0.353400   15.155200
 H    4.916600   -0.977200   13.430700
 H    4.131900    0.272400    9.126200
 H    5.338200   -1.128000    7.496600
 H    6.096400   -4.056100   10.350300
 H    4.908700   -2.783600   12.098400
 H    2.261500    0.494800   10.344000
 H    0.022600    2.316500   10.339000
 H   -2.045800    2.271900    9.501900
 C   -5.920500    6.673300    4.784500
 N   -6.351200    6.477600    6.042200
 C   -7.634900    6.737700    6.340300
 C   -8.529200    7.198500    5.390400
 C   -8.107700    7.402700    4.067100
 C   -9.032600    7.874900    3.021700
 C  -10.111000    8.723400    3.358200
 C  -11.008100    9.190000    2.404300
 C  -10.802500    8.772400    1.096800
 O  -11.573600    9.106400    0.028300
 C  -11.036100    8.484800   -1.054600
 C  -11.525400    8.553000   -2.351400
 C  -10.836900    7.829600   -3.318400
 C   -9.687000    7.069700   -3.008700
 C   -8.991700    6.315600   -4.066600
 C   -7.604100    6.105900   -4.027500
 C   -6.984000    5.379500   -5.027700
 N   -7.671100    4.852100   -6.055000
 C   -8.999200    5.044600   -6.119300
 C   -9.683200    5.765700   -5.157100
 C   -9.212300    7.027700   -1.690700
 C   -9.896900    7.735500   -0.705700
 C   -9.742300    7.925900    0.722500
 C   -8.846900    7.477700    1.690400
 C   -6.760500    7.127400    3.784300
 H   -4.868800    6.463700    4.580800
 H   -7.952300    6.560500    7.369600
 H   -9.563300    7.369600    5.690300
 H  -10.235400    9.049000    4.392400
 H  -11.831500    9.854300    2.668200
 H  -12.405200    9.147900   -2.598600
 H  -11.187000    7.876500   -4.351200
 H   -6.989100    6.525000   -3.230800
 H   -5.905000    5.215300   -5.014700
 H   -9.526600    4.596600   -6.963500
 H  -10.764300    5.866700   -5.253700
 H   -8.340400    6.425300   -1.429300
 H   -8.033400    6.803800    1.415900
 H   -6.345600    7.287000    2.788900
 C   -4.348700   -9.125900    0.233000
 N   -5.665800   -9.305800    0.428500
 C   -6.323300  -10.197400   -0.331300
 C   -5.684300  -10.939000   -1.309400
 C   -4.310600  -10.765300   -1.538700
 C   -3.594200  -11.527400   -2.576700
 C   -4.001100  -12.841100   -2.899400
 C   -3.349800  -13.598000   -3.866700
 C   -2.279800  -12.996600   -4.514300
 O   -1.523000  -13.565700   -5.489700
 C   -0.593700  -12.643300   -5.855400
 C    0.385500  -12.821400   -6.822600
 C    1.247000  -11.753200   -7.044800
 C    1.132300  -10.537800   -6.333900
 C    2.062100   -9.428600   -6.609800
 C    1.661600   -8.089100   -6.481000
 C    2.558000   -7.069300   -6.743000
 N    3.824700   -7.314500   -7.118900
 C    4.233100   -8.587600   -7.251100
 C    3.387600   -9.656500   -7.011300
 C    0.130600  -10.387500   -5.365400
 C   -0.734700  -11.451000   -5.120900
 C   -1.849400  -11.688000   -4.226000
 C   -2.506800  -10.949200   -3.245400
 C   -3.648400   -9.826900   -0.731500
 H   -3.844600   -8.403100    0.877100
 H   -7.394100  -10.310400   -0.151500
 H   -6.276400  -11.632500   -1.906800
 H   -4.834200  -13.293100   -2.357900
 H   -3.659500  -14.616600   -4.102300
 H    0.469800  -13.752400   -7.384100
 H    2.015100  -11.854900   -7.813700
 H    0.641300   -7.826000   -6.201500
 H    2.257000   -6.023100   -6.657700
 H    5.270500   -8.748900   -7.550600
 H    3.783800  -10.666800   -7.115700
 H    0.044200   -9.464500   -4.789100
 H   -2.195100   -9.926600   -3.025600
 H   -2.576600   -9.651900   -0.826900
 C    6.682400   -3.397300   -6.784400
 N    6.351500   -4.220800   -7.793300
 C    6.853100   -3.988800   -9.017700
 C    7.702800   -2.926600   -9.272500
 C    8.058800   -2.047400   -8.237900
 C    8.951400   -0.897900   -8.467900
 C    9.973700   -0.976400   -9.439800
 C   10.842400    0.081400   -9.683100
 C   10.651800    1.231700   -8.930400
 O   11.388500    2.370600   -9.023700
 C   10.871200    3.248600   -8.123800
 C   11.335800    4.535400   -7.890500
 C   10.670100    5.274200   -6.919200
 C    9.566500    4.753900   -6.207000
 C    8.886800    5.577300   -5.191400
 C    7.512200    5.442400   -4.939300
 C    6.903900    6.225700   -3.975700
 N    7.590700    7.126800   -3.253300
 C    8.906800    7.277200   -3.476400
 C    9.578700    6.530500   -4.428100
 C    9.119000    3.451700   -6.467900
 C    9.780800    2.692300   -7.429500
 C    9.640100    1.351000   -7.959300
 C    8.786800    0.276500   -7.721200
 C    7.521200   -2.313600   -6.968700
 H    6.266100   -3.624100   -5.801200
 H    6.555400   -4.672700   -9.814800
 H    8.060700   -2.779200  -10.291600
 H   10.110600   -1.902400  -10.001200
 H   11.638700    0.010400  -10.424600
 H   12.178300    4.947300   -8.447000
 H   10.998700    6.297300   -6.727200
 H    6.896900    4.745700   -5.508800
 H    5.834000    6.139600   -3.776300
 H    9.434000    8.012300   -2.865300
 H   10.651600    6.682500   -4.546400
 H    8.284300    3.024600   -5.909100
 H    7.985600    0.363300   -6.985000
 H    7.771600   -1.696200   -6.105900
 C    5.918600   -6.691000   -4.790900
 N    6.354700   -6.490500   -6.045800
 C    7.639700   -6.750300   -6.339700
 C    8.529800   -7.216800   -5.388800
 C    8.102700   -7.424400   -4.068000
 C    9.023800   -7.900700   -3.020900
 C   10.094400   -8.759900   -3.354600
 C   10.987700   -9.230700   -2.399100
 C   10.786500   -8.805900   -1.093300
 O   11.554700   -9.142700   -0.023400
 C   11.023300   -8.511400    1.057000
 C   11.510900   -8.580000    2.354500
 C   10.828700   -7.846500    3.318600
 C    9.687400   -7.075100    3.005200
 C    8.996600   -6.312000    4.059700
 C    7.613700   -6.076300    4.006700
 C    6.995600   -5.345700    5.004800
 N    7.680800   -4.838400    6.043600
 C    9.005000   -5.052300    6.119900
 C    9.686600   -5.778600    5.159400
 C    9.214900   -7.032600    1.686400
 C    9.891900   -7.752000    0.704800
 C    9.734600   -7.947600   -0.722300
 C    8.842400   -7.495800   -1.691500
 C    6.754700   -7.149100   -3.789100
 H    4.866200   -6.482000   -4.590700
 H    7.961400   -6.566900   -7.366300
 H    9.565000   -7.387300   -5.685100
 H   10.215400   -9.090400   -4.387800
 H   11.805000   -9.903600   -2.660500
 H   12.384000   -9.183300    2.604800
 H   11.177000   -7.894700    4.351800
 H    7.000700   -6.479200    3.200500
 H    5.920000   -5.161300    4.980500
 H    9.530400   -4.617600    6.972300
 H   10.764900   -5.898300    5.265200
 H    8.349400   -6.422700    1.421600
 H    8.035000   -6.813400   -1.419900
 H    6.336000   -7.313200   -2.796100
 C    3.326500   -3.810400   -8.749300
 N    3.829300   -5.050600   -8.868600
 C    3.467300   -5.804600   -9.920000
 C    2.588900   -5.343400  -10.884500
 C    2.041300   -4.055500  -10.778700
 C    1.091300   -3.531300  -11.775500
 C    1.186000   -3.935100  -13.125900
 C    0.317400   -3.458000  -14.100600
 C   -0.662500   -2.568700  -13.682600
 O   -1.604800   -1.997500  -14.478700
 C   -2.366100   -1.203600  -13.679800
 C   -3.440000   -0.429900  -14.096800
 C   -4.086400    0.320600  -13.121400
 C   -3.684500    0.294600  -11.767400
 C   -4.404800    1.101700  -10.767000
 C   -4.531800    0.675100   -9.435600
 C   -5.210200    1.457200   -8.518900
 N   -5.759400    2.635800   -8.857500
 C   -5.653700    3.066300  -10.125700
 C   -4.994700    2.332000  -11.096000
 C   -2.598200   -0.500000  -11.376700
 C   -1.930600   -1.249600  -12.342200
 C   -0.794800   -2.149700  -12.345400
 C    0.092300   -2.629400  -11.384800
 C    2.439100   -3.288200   -9.672500
 H    3.652500   -3.221900   -7.889500
 H    3.889200   -6.809700   -9.980500
 H    2.317000   -6.010900  -11.702400
 H    1.980400   -4.620600  -13.426800
 H    0.404000   -3.761900  -15.144300
 H   -3.763400   -0.417000  -15.138100
 H   -4.947500    0.924100  -13.414100
 H   -4.128100   -0.282400   -9.106000
 H   -5.327100    1.132600   -7.483300
 H   -6.105500    4.031500  -10.362100
 H   -4.924000    2.743900  -12.102800
 H   -2.258900   -0.511800  -10.339300
 H   -0.010700   -2.327700  -10.340800
 H    2.081000   -2.268400   -9.531800
 C   -4.639400   -8.064300    3.988200
 N   -5.365400   -8.921800    3.251300
 C   -5.219100  -10.242100    3.452400
 C   -4.341100  -10.747200    4.394900
 C   -3.563300   -9.873800    5.171200
 C   -2.603800  -10.372200    6.172300
 C   -2.854200  -11.585400    6.851600
 C   -1.976200  -12.093300    7.802000
 C   -0.827100  -11.355200    8.048100
 O    0.154300  -11.688400    8.927600
 C    1.095300  -10.710000    8.856000
 C    2.273300  -10.666700    9.588200
 C    3.112500   -9.582500    9.359000
 C    2.786400   -8.563600    8.436200
 C    3.709500   -7.434300    8.225700
 C    3.241600   -6.158700    7.872400
 C    4.135400   -5.123200    7.669900
 N    5.462300   -5.292200    7.799100
 C    5.935900   -6.502000    8.141500
 C    5.098700   -7.581200    8.362100
 C    1.585000   -8.632100    7.717400
 C    0.736500   -9.716700    7.925600
 C   -0.540000  -10.145000    7.389400
 C   -1.437200   -9.645800    6.448400
 C   -3.738700   -8.499500    4.943100
 H   -4.792300   -6.998800    3.806300
 H   -5.819200  -10.908800    2.830300
 H   -4.252000  -11.829000    4.495200
 H   -3.775900  -12.133800    6.649300
 H   -2.181000  -13.023800    8.332400
 H    2.524700  -11.443600   10.310900
 H    4.037600   -9.510700    9.933600
 H    2.175800   -5.952500    7.773500
 H    3.784300   -4.124800    7.401400
 H    7.019000   -6.606000    8.230600
 H    5.546700   -8.542600    8.614100
 H    1.327800   -7.866700    6.983000
 H   -1.216100   -8.719000    5.916000
 H   -3.194100   -7.754500    5.523300
 C   -7.410500   -6.849800   -0.639900
 N   -7.899400   -7.514600    0.420700
 C   -9.227500   -7.684200    0.530600
 C  -10.109300   -7.193100   -0.415900
 C   -9.626100   -6.487200   -1.528800
 C  -10.532100   -5.935800   -2.551900
 C  -11.749900   -6.588300   -2.847300
 C  -12.631200   -6.105800   -3.808000
 C  -12.263600   -4.938600   -4.462500
 O  -12.988400   -4.307900   -5.424300
 C  -12.279500   -3.208300   -5.793700
 C  -12.660500   -2.287100   -6.759300
 C  -11.787500   -1.231400   -6.995700
 C  -10.574500   -1.088700   -6.285600
 C   -9.682000    0.049800   -6.565600
 C   -8.878700    0.613900   -5.561800
 C   -8.046500    1.678400   -5.855900
 N   -7.970500    2.201800   -7.091200
 C   -8.728700    1.680400   -8.070200
 C   -9.588700    0.620000   -7.844800
 C  -10.220200   -2.033200   -5.312900
 C  -11.076800   -3.103900   -5.070100
 C  -11.063000   -4.256100   -4.191500
 C  -10.187500   -4.760400   -3.233000
 C   -8.234200   -6.327100   -1.619900
 H   -6.325900   -6.741400   -0.703000
 H   -9.589300   -8.220900    1.409800
 H  -11.177500   -7.344300   -0.259500
 H  -12.001300   -7.515800   -2.329700
 H  -13.563200   -6.621400   -4.041500
 H  -13.601800   -2.384800   -7.301000
 H  -12.069000   -0.478700   -7.734400
 H   -8.912300    0.246500   -4.536100
 H   -7.424500    2.134500   -5.083000
 H   -8.634000    2.123800   -9.063400
 H  -10.162100    0.227800   -8.684900
 H   -9.275400   -1.951600   -4.772400
 H   -9.262900   -4.229300   -2.999700
 H   -7.775600   -5.817000   -2.467100
 C    8.031200    6.191400   -0.233700
 N    7.917200    7.515700   -0.430500
 C    8.636600    8.353800    0.334400
 C    9.489400    7.894800    1.322700
 C    9.619800    6.516800    1.555600
 C   10.503800    5.988100    2.609500
 C   11.679500    6.685900    2.965300
 C   12.541400    6.223500    3.953000
 C   12.187000    5.041300    4.587500
 O   12.889100    4.434900    5.581000
 C   12.198200    3.315800    5.924600
 C   12.566100    2.409100    6.908600
 C   11.713800    1.330700    7.115600
 C   10.533700    1.152000    6.359800
 C    9.659300   -0.006100    6.616500
 C    8.897300   -0.591900    5.593300
 C    8.077900   -1.671000    5.870100
 N    7.977700   -2.191100    7.105200
 C    8.701200   -1.652500    8.101200
 C    9.543700   -0.574600    7.894700
 C   10.193000    2.081800    5.367900
 C   11.029600    3.174400    5.152900
 C   11.022700    4.319400    4.264500
 C   10.177100    4.792500    3.264000
 C    8.861100    5.663700    0.738400
 H    7.440800    5.539800   -0.880300
 H    8.513900    9.423200    0.152800
 H   10.027200    8.626600    1.925800
 H   11.941700    7.602600    2.434000
 H   13.454200    6.759600    4.214300
 H   13.481900    2.535200    7.486900
 H   11.986000    0.590000    7.869500
 H    8.952900   -0.229700    4.566700
 H    7.486600   -2.141900    5.082600
 H    8.592100   -2.096500    9.092700
 H   10.086700   -0.167700    8.747700
 H    9.272800    1.972400    4.791300
 H    9.260700    4.252800    3.018500
 H    8.925600    4.579900    0.834700
 C    4.038500    8.718600   -3.103500
 N    5.359700    8.920700   -3.241100
 C    5.811200    9.580300   -4.321000
 C    4.955800   10.060900   -5.296600
 C    3.571800    9.857700   -5.180800
 C    2.627100   10.344200   -6.201700
 C    2.911600   11.523000   -6.926400
 C    2.044100   12.023600   -7.890300
 C    0.881000   11.301800   -8.118800
 O   -0.085900   11.622600   -9.018900
 C   -1.041100   10.659300   -8.930200
 C   -2.210900   10.609900   -9.675100
 C   -3.064100    9.540200   -9.429400
 C   -2.758900    8.541300   -8.478200
 C   -3.689800    7.420500   -8.258100
 C   -3.228400    6.148200   -7.884800
 C   -4.127100    5.118000   -7.678100
 N   -5.452200    5.290000   -7.820400
 C   -5.919800    6.496900   -8.180800
 C   -5.077200    7.570800   -8.407800
 C   -1.567700    8.617600   -7.743600
 C   -0.705900    9.688400   -7.968000
 C    0.566200   10.119100   -7.423800
 C    1.442400    9.638800   -6.453700
 C    3.127600    9.165000   -4.043300
 H    3.706300    8.189700   -2.207900
 H    6.891100    9.718000   -4.405000
 H    5.385300   10.570300   -6.159300
 H    3.824800   12.079800   -6.708800
 H    2.262200   12.941800   -8.436500
 H   -2.444900   11.370400  -10.420600
 H   -3.982400    9.462000  -10.014100
 H   -2.163900    5.939900   -7.776600
 H   -3.781400    4.121400   -7.396300
 H   -7.001900    6.602800   -8.279300
 H   -5.519100    8.530800   -8.675100
 H   -1.328000    7.868100   -6.987100
 H    1.219000    8.712600   -5.921100
 H    2.066600    8.989400   -3.864700
