194
cis_l2_lc
Pd   -6.099100   -2.355600   -0.253100
Pd    6.098500   -2.355700   -0.252700
 C   -0.000500   -6.699400    3.825400
 C    1.209600   -6.131400    3.433500
 C    1.219200   -4.963400    2.658900
 C   -0.000500   -4.385600    2.291500
 C   -1.220300   -4.963500    2.658900
 C   -1.210700   -6.131400    3.433500
 C   -2.471700   -4.353700    2.168600
 C   -2.592000   -2.962400    2.044200
 C   -3.716700   -2.420200    1.449600
 N   -4.714100   -3.186900    0.985100
 C   -4.654400   -4.515300    1.156700
 C   -3.560000   -5.129400    1.746800
 C    2.470600   -4.353600    2.168600
 C    2.590700   -2.962300    2.043700
 C    3.715500   -2.420200    1.449100
 N    4.713200   -3.186900    0.985200
 C    4.653600   -4.515300    1.157400
 C    3.559100   -5.129300    1.747400
 H   -0.000500   -7.599000    4.443900
 H    2.150500   -6.589500    3.745900
 H   -0.000600   -3.505400    1.645800
 H   -2.151600   -6.589600    3.745800
 H   -1.808400   -2.292300    2.399000
 H   -3.814500   -1.340600    1.319100
 H   -5.495200   -5.100300    0.778300
 H   -3.541200   -6.217500    1.820100
 H    1.806900   -2.292300    2.398000
 H    3.813000   -1.340700    1.318100
 H    5.494700   -5.100200    0.779500
 H    3.540600   -6.217400    1.821000
 C   -0.000200   -4.737400   -5.704800
 C    1.209400   -4.364600   -5.123600
 C    1.219000   -3.583400   -3.960000
 C   -0.000200   -3.187100   -3.399400
 C   -1.219500   -3.583300   -3.960000
 C   -1.209800   -4.364500   -5.123700
 C   -2.474700   -3.220700   -3.272800
 C   -2.622900   -1.975900   -2.645000
 C   -3.753300   -1.718000   -1.889900
 N   -4.726600   -2.627800   -1.734300
 C   -4.639900   -3.797800   -2.382900
 C   -3.540800   -4.123800   -3.162600
 C    2.474300   -3.220900   -3.272700
 C    2.622700   -1.975900   -2.645200
 C    3.753100   -1.718000   -1.890100
 N    4.726100   -2.628000   -1.734100
 C    4.639200   -3.798200   -2.382300
 C    3.540100   -4.124200   -3.162100
 H   -0.000200   -5.330200   -6.621700
 H    2.150600   -4.669200   -5.586400
 H   -0.000200   -2.621200   -2.465300
 H   -2.151000   -4.669000   -5.586500
 H   -1.857600   -1.203700   -2.731200
 H   -3.878200   -0.763500   -1.374500
 H   -5.463300   -4.500700   -2.239800
 H   -3.498700   -5.107600   -3.631600
 H    1.857500   -1.203600   -2.731800
 H    3.878100   -0.763400   -1.375000
 H    5.462400   -4.501200   -2.238800
 H    3.497900   -5.108100   -3.630800
 C    9.438100   -1.565300   -2.760100
 C    9.377100   -0.171100   -3.007500
 C    8.248100    0.547200   -2.506700
 C    8.113800    1.949700   -2.763500
 C    9.143200    2.585900   -3.435200
 C   10.274400    1.880800   -3.899000
 C   10.388100    0.522700   -3.712200
 C    6.905200    2.712300   -2.381500
 C    7.021400    3.972000   -1.773200
 C    5.899100    4.745900   -1.507600
 C    4.615100    4.277300   -1.841000
 C    3.454800    5.076600   -1.636900
 C    2.438000    5.741000   -1.536800
 C    1.218500    6.476500   -1.486300
 C    1.209900    7.883200   -1.474100
 C    0.000500    8.571300   -1.468200
 C   -1.209000    7.883200   -1.474000
 C   -1.217600    6.476500   -1.486200
 C   -2.437200    5.741200   -1.536500
 C   -3.454100    5.076900   -1.636500
 C   -4.614500    4.277700   -1.840500
 C   -4.492600    3.004000   -2.427300
 C   -5.619300    2.240700   -2.697000
 C   -6.904800    2.713000   -2.381000
 C   -8.113600    1.950700   -2.763100
 C   -8.248100    0.548100   -2.506600
 C   -9.377200   -0.169900   -3.007500
 C   -9.438500   -1.564100   -2.760500
 C   -8.457400   -2.175700   -2.028300
 N   -7.424000   -1.466200   -1.497900
 C   -7.321300   -0.168500   -1.720500
 C  -10.388100    0.524300   -3.712100
 C  -10.274200    1.882400   -3.898600
 C   -9.142900    2.587200   -3.434600
 C   -7.020800    3.972600   -1.772600
 C   -5.898400    4.746400   -1.507000
 C    0.000400    5.782500   -1.487400
 C    4.493100    3.003600   -2.427700
 C    5.619600    2.240100   -2.697400
 C    7.321200   -0.169100   -1.720400
 N    7.423600   -1.466700   -1.497500
 C    8.456900   -2.176600   -2.027700
 H   10.271100   -2.154800   -3.146200
 H    9.060100    3.653700   -3.648000
 H   11.054800    2.425000   -4.435200
 H   11.248900   -0.028700   -4.095000
 H    8.009700    4.349800   -1.502500
 H    6.009300    5.726000   -1.040200
 H    2.156300    8.426600   -1.472600
 H    0.000500    9.663300   -1.459200
 H   -2.155400    8.426700   -1.472400
 H   -3.503700    2.630300   -2.698500
 H   -5.498300    1.280300   -3.203500
 H  -10.271600   -2.153400   -3.146800
 H   -8.469100   -3.246600   -1.821600
 H   -6.487000    0.351100   -1.246000
 H  -11.249000   -0.026900   -4.095000
 H  -11.054500    2.426800   -4.434600
 H   -9.059600    3.655000   -3.647200
 H   -8.009000    4.350500   -1.501700
 H   -6.008400    5.726500   -1.039400
 H    0.000400    4.691900   -1.497600
 H    3.504000    2.629900   -2.698800
 H    5.498500    1.279700   -3.203700
 H    6.487000    0.350800   -1.246000
 H    8.468400   -3.247400   -1.820900
 C    9.400400   -2.527800    2.441100
 C    9.300400   -1.324200    3.183600
 C    8.199800   -0.459900    2.902000
 C    8.041200    0.770200    3.615000
 C    8.958700    1.072600    4.602600
 C   10.045700    0.214700    4.884800
 C   10.226900   -0.958200    4.188400
 C    6.901300    1.669900    3.323500
 C    5.992600    1.994800    4.339700
 C    4.880600    2.782900    4.073600
 C    4.649500    3.277700    2.777600
 C    3.476000    4.045100    2.509700
 C    2.447300    4.672400    2.328900
 C    1.219100    5.382100    2.160300
 C    1.209100    6.762800    1.896100
 C    0.000400    7.439500    1.772000
 C   -1.208300    6.762700    1.896200
 C   -1.218200    5.382000    2.160500
 C   -2.446300    4.672200    2.329200
 C   -3.474900    4.044800    2.510100
 C   -4.648400    3.277400    2.777900
 C   -5.578900    2.983500    1.765400
 C   -6.686500    2.190200    2.037500
 C   -6.900300    1.669700    3.323800
 C   -8.040400    0.770300    3.615400
 C   -8.199600   -0.459600    2.902100
 C   -9.300400   -1.323600    3.183700
 C   -9.401000   -2.527000    2.440900
 C   -8.459500   -2.833400    1.494500
 N   -7.404100   -2.008600    1.254000
 C   -7.271000   -0.882600    1.929900
 C  -10.226600   -0.957600    4.188800
 C  -10.044800    0.215100    4.885500
 C   -8.957600    1.072700    4.603200
 C   -5.991500    1.994400    4.340000
 C   -4.879400    2.782400    4.073900
 C    0.000500    4.699900    2.289800
 C    5.579900    2.983700    1.765000
 C    6.687500    2.190300    2.037200
 C    7.271000   -0.882600    1.930100
 N    7.403500   -2.008900    1.254300
 C    8.458600   -2.834100    1.494900
 H   10.227800   -3.215700    2.621600
 H    8.852600    2.004200    5.162500
 H   10.755100    0.498800    5.665100
 H   11.072000   -1.615100    4.403300
 H    6.146700    1.598100    5.345800
 H    4.169600    3.011200    4.869700
 H    2.155000    7.296700    1.790400
 H    0.000300    8.511000    1.565600
 H   -2.154300    7.296500    1.790700
 H   -5.426200    3.378200    0.759600
 H   -7.400900    1.978200    1.237800
 H  -10.228700   -3.214600    2.621400
 H   -8.507600   -3.748600    0.902400
 H   -6.394400   -0.272700    1.706400
 H  -11.071900   -1.614200    4.403700
 H  -10.754000    0.499300    5.666000
 H   -8.851100    2.004100    5.163300
 H   -6.145500    1.597600    5.346000
 H   -4.168300    3.010500    4.870000
 H    0.000500    3.629500    2.500200
 H    5.427200    3.378300    0.759200
 H    7.401800    1.978100    1.237400
 H    6.394600   -0.272400    1.706600
 H    8.506200   -3.749400    0.903000
