188
cis_l2_ld
Pd   -6.141700   -2.235200   -0.095800
Pd    6.141400   -2.235200    0.096000
 C   -0.063900   -5.610000    4.841500
 C    1.136400   -5.095500    4.358500
 C    1.132800   -4.112700    3.358200
 C   -0.095200   -3.654900    2.867300
 C   -1.305000   -4.183900    3.331000
 C   -1.280600   -5.172300    4.323800
 C   -2.567100   -3.717600    2.723200
 C   -2.748700   -2.366200    2.399100
 C   -3.881100   -1.973200    1.709500
 N   -4.824100   -2.849600    1.330000
 C   -4.704300   -4.135700    1.687400
 C   -3.602400   -4.601200    2.390300
 C    2.386300   -3.600300    2.769500
 C    2.489500   -2.283300    2.298400
 C    3.634100   -1.875900    1.634700
 N    4.668800   -2.703100    1.427500
 C    4.619200   -3.946900    1.926700
 C    3.507600   -4.424700    2.601600
 H   -0.050700   -6.364200    5.630700
 H    2.081700   -5.451400    4.773300
 H   -0.111100   -2.922500    2.057500
 H   -2.215700   -5.586700    4.706600
 H   -2.007200   -1.614800    2.672500
 H   -4.032100   -0.929200    1.427300
 H   -5.498800   -4.812600    1.367800
 H   -3.532700   -5.665300    2.619400
 H    1.678500   -1.567200    2.434800
 H    3.719000   -0.861900    1.239300
 H    5.488200   -4.583700    1.747500
 H    3.507000   -5.460000    2.944000
 C    0.063600   -5.610700   -4.840900
 C    1.280300   -5.172900   -4.323300
 C    1.304800   -4.184300   -3.330700
 C    0.095000   -3.655300   -2.867100
 C   -1.133100   -4.113200   -3.357900
 C   -1.136700   -5.096200   -4.358000
 C   -2.386500   -3.600700   -2.769200
 C   -2.489700   -2.283700   -2.298200
 C   -3.634300   -1.876200   -1.634400
 N   -4.669000   -2.703300   -1.427200
 C   -4.619500   -3.947200   -1.926400
 C   -3.507900   -4.425100   -2.601200
 C    2.566900   -3.717900   -2.722900
 C    3.602300   -4.601400   -2.390000
 C    4.704100   -4.135800   -1.687100
 N    4.823800   -2.849700   -1.329700
 C    3.880700   -1.973500   -1.709300
 C    2.748400   -2.366500   -2.398900
 H    0.050400   -6.365100   -5.630000
 H    2.215500   -5.587400   -4.706100
 H    0.110900   -2.922800   -2.057400
 H   -2.081900   -5.452200   -4.772700
 H   -1.678700   -1.567700   -2.434500
 H   -3.719100   -0.862200   -1.239100
 H   -5.488400   -4.584000   -1.747100
 H   -3.507300   -5.460400   -2.943500
 H    3.532700   -5.665600   -2.619100
 H    5.498600   -4.812700   -1.367600
 H    4.031700   -0.929400   -1.427100
 H    2.006800   -1.615200   -2.672300
 C    9.684100   -2.404800   -2.245100
 C    9.836900   -1.094400   -2.763600
 C    8.818100   -0.139800   -2.466700
 C    8.917900    1.200700   -2.959600
 C   10.001300    1.526500   -3.751800
 C   11.007100    0.579100   -4.048000
 C   10.938700   -0.706200   -3.561800
 C    7.853400    2.185000   -2.660300
 C    7.140700    2.781600   -3.709200
 C    6.051800    3.603500   -3.449700
 C    5.646400    3.850400   -2.125700
 C    4.432900    4.557700   -1.877100
 C    3.336800    5.076600   -1.740100
 C    1.993200    5.498700   -1.667200
 C    1.439100    6.765400   -1.592300
 C    0.028500    6.754200   -1.628000
 C   -0.502100    5.478400   -1.731200
 C   -1.832600    5.044700   -1.864700
 C   -2.933500    4.550400   -2.049600
 C   -4.148900    3.877700   -2.347000
 C   -4.092200    2.535600   -2.772300
 C   -5.252100    1.849400   -3.094800
 C   -6.511600    2.463800   -2.987400
 C   -7.742200    1.729900   -3.351400
 C   -7.985500    0.392800   -2.894900
 C   -9.119900   -0.334200   -3.369300
 C   -9.282400   -1.670700   -2.926000
 C   -8.390900   -2.215900   -2.041800
 N   -7.356000   -1.487800   -1.541000
 C   -7.163800   -0.242900   -1.939700
 C  -10.034600    0.296600   -4.244600
 C   -9.821600    1.602100   -4.623100
 C   -8.680500    2.309300   -4.187100
 C   -6.563600    3.805200   -2.577000
 C   -5.404900    4.505700   -2.262500
 S    0.757700    4.285100   -1.765700
 C    6.403400    3.310000   -1.071900
 C    7.493300    2.492000   -1.338800
 C    7.715100   -0.577800   -1.703400
 N    7.616800   -1.804000   -1.225000
 C    8.589000   -2.721400   -1.486600
 H   10.439800   -3.165600   -2.446400
 H   10.091300    2.542700   -4.141500
 H   11.853900    0.881800   -4.667900
 H   11.719900   -1.435000   -3.786300
 H    7.417200    2.559500   -4.742300
 H    5.479900    4.031000   -4.275200
 H    2.045400    7.668500   -1.524400
 H   -0.595400    7.646800   -1.588700
 H   -3.122500    2.043500   -2.866000
 H   -5.174900    0.825100   -3.466000
 H  -10.121700   -2.268600   -3.284500
 H   -8.481000   -3.243300   -1.687600
 H   -6.340200    0.302900   -1.476000
 H  -10.900900   -0.260500   -4.606000
 H  -10.528000    2.097500   -5.292600
 H   -8.513700    3.324700   -4.552500
 H   -7.531700    4.301800   -2.481700
 H   -5.466800    5.545000   -1.935100
 H    6.116500    3.516800   -0.040500
 H    8.065900    2.074500   -0.506800
 H    6.895900    0.106600   -1.479500
 H    8.444400   -3.717500   -1.064900
 C    9.282200   -1.670500    2.925900
 C    9.119900   -0.333900    3.369100
 C    7.985400    0.393100    2.894700
 C    7.742300    1.730300    3.351100
 C    8.680700    2.309700    4.186700
 C    9.821800    1.602400    4.622700
 C   10.034600    0.296900    4.244300
 C    6.511700    2.464300    2.987100
 C    6.563800    3.805600    2.576500
 C    5.405100    4.506200    2.262100
 C    4.149100    3.878200    2.346800
 C    2.933800    4.551000    2.049400
 C    1.832800    5.045200    1.864200
 C    0.502300    5.478900    1.730700
 C   -0.028200    6.754600    1.626400
 C   -1.438800    6.765900    1.590700
 C   -1.993000    5.499300    1.666600
 C   -3.336600    5.077200    1.739500
 C   -4.432600    4.558400    1.876700
 C   -5.646200    3.850900    2.125400
 C   -6.403400    3.310800    1.071700
 C   -7.493200    2.492800    1.338700
 C   -7.853100    2.185500    2.660300
 C   -8.917500    1.201300    2.959700
 C   -8.817900   -0.139200    2.466800
 C   -9.836800   -1.093700    2.763900
 C   -9.684100   -2.404100    2.245400
 C   -8.589200   -2.720900    1.486800
 N   -7.616900   -1.803600    1.225100
 C   -7.715200   -0.577300    1.703300
 C  -10.938400   -0.705400    3.562300
 C  -11.006700    0.579900    4.048500
 C  -10.000800    1.527200    3.752100
 C   -7.140100    2.782000    3.709100
 C   -6.051200    3.603900    3.449400
 S   -0.757500    4.285700    1.766100
 C    4.092300    2.536200    2.772200
 C    5.252200    1.849900    3.094700
 C    7.163700   -0.242600    1.939600
 N    7.355700   -1.487700    1.541000
 C    8.390700   -2.215700    2.041800
 H   10.121500   -2.268400    3.284400
 H    8.514000    3.325100    4.551900
 H   10.528200    2.097800    5.292100
 H   10.900900   -0.260300    4.605800
 H    7.532000    4.302100    2.481000
 H    5.467100    5.545400    1.934600
 H    0.595700    7.647200    1.586400
 H   -2.045100    7.669000    1.522100
 H   -6.116700    3.517800    0.040300
 H   -8.066100    2.075400    0.506800
 H  -10.439900   -3.164900    2.446900
 H   -8.444800   -3.717000    1.065200
 H   -6.895900    0.107000    1.479200
 H  -11.719600   -1.434200    3.786900
 H  -11.853300    0.882700    4.668500
 H  -10.090700    2.543400    4.141800
 H   -7.416300    2.559700    4.742200
 H   -5.479100    4.031200    4.274900
 H    3.122600    2.044300    2.866100
 H    5.175000    0.825800    3.466100
 H    6.340000    0.303100    1.476000
 H    8.480700   -3.243100    1.687600
