56

H         11.58950       14.48830        5.87820
H          6.53760        4.84300       16.29980
H         10.35390       12.81610       10.80070
H          7.77090        6.64320       11.44870
H         16.39020       17.22850        4.82800
H          8.89030       -0.23320       17.64590
H         16.01450       14.79080        4.73630
H          7.35910       -0.70060       15.76840
H         14.94940       18.63940        6.24970
H          9.59130        2.08940       18.10640
H          9.35030       13.16350        6.05190
H          5.78470        7.34890       15.84050
H         13.16100       17.61570        7.60410
H          8.76860        3.93000       16.69320
H          7.85870       11.78750        7.48010
H          6.03780        9.29990       14.33010
H          8.54910       12.38410       11.93890
H          7.71420       10.65150       13.42890
H         14.19590       13.77240        6.05850
H          6.53680        1.12500       14.35960
H          7.89460        9.80820        8.57970
H          6.98000        8.11390       10.05810
N         10.85800       13.67730        9.01500
N          7.11920        5.78590       13.18100
N         12.53270       15.03290        7.64990
N          7.15120        3.72650       14.64600
C         11.61340       14.45190        6.96320
C          6.72730        4.79780       15.23260
C         10.09140       12.89730        9.75860
C          7.30170        6.83540       12.40130
C         15.60800       16.77990        5.41890
C          8.53190        0.57330       17.02670
C         15.39610       15.41090        5.36610
C          7.67510        0.31100       15.96860
C         14.80260       17.57100        6.22300
C          8.92210        1.87780       17.28720
C          9.53450       13.06020        7.10950
C          6.21610        7.23700       14.85880
C         13.79940       17.00340        6.98940
C          8.44910        2.91450       16.50690
C          8.71750       12.28370        7.90330
C          6.37170        8.32210       14.02110
C          8.24290       11.43620       11.52370
C          7.74570       10.46520       12.36650
C         14.37670       14.83760        6.10200
C          7.21290        1.34010       15.17030
C          7.85130       10.00310        9.63970
C          7.35510        9.03270       10.48150
C         10.62220       13.71770        7.68810
C          6.63300        5.97570       14.42600
C         13.57860       15.63160        6.92750
C          7.58320        2.65810       15.43830
C          9.02280       12.14930        9.26380
C          6.97070        8.13920       12.76740
C          8.34060       11.20680       10.14960
C          7.33050        9.23160       11.86370
