186

Pd -0.151800 5.308800 -0.074700
Pd 0.318900 -7.979100 0.059000
C 7.263500 -4.523900 -0.119800
C 6.893600 -5.675100 -0.094300
C 6.421400 -7.000900 -0.064000
C 7.295000 -8.074400 -0.060400
C 6.820000 -9.390500 -0.030300
C 5.474900 -9.656400 -0.003600
C 4.550900 -8.590100 -0.006400
C 3.157700 -8.796000 0.020300
N 2.294000 -7.804700 0.018100
C 2.731300 -6.519300 -0.010800
C 4.061300 -6.211800 -0.038200
C 5.019300 -7.246100 -0.036700
H 8.358700 -7.891300 -0.081100
H 7.531800 -10.201700 -0.028300
H 5.115300 -10.672800 0.019500
H 2.757800 -9.805800 0.044000
H 1.957400 -5.750000 -0.011000
H 4.398100 -5.187900 -0.061100
C 7.683000 -3.178700 -0.150000
C 9.065400 -2.873000 -0.186200
C 9.480300 -1.573400 -0.216100
C 8.549800 -0.511500 -0.211800
C 8.955000 0.840800 -0.242600
C 8.037100 1.850000 -0.237800
C 6.652000 1.552600 -0.201200
C 6.227000 0.240600 -0.170500
C 7.160100 -0.813600 -0.175200
C 6.752200 -2.160300 -0.144800
H 9.781900 -3.680900 -0.189700
H 10.534900 -1.338800 -0.243800
H 10.011900 1.064000 -0.270300
H 8.353700 2.881800 -0.261600
H 5.172600 0.012400 -0.142800
H 5.697800 -2.388900 -0.117100
C 5.723900 2.612000 -0.196600
C 4.931700 3.525800 -0.192100
C 4.052900 4.624400 -0.188200
C 4.545300 5.936600 -0.226000
C 3.651200 6.992000 -0.219700
C 2.291900 6.725600 -0.175900
N 1.825300 5.472200 -0.140200
C 2.666500 4.443000 -0.145700
H 5.609600 6.109800 -0.259400
H 4.002800 8.010700 -0.248200
H 1.552300 7.526600 -0.169100
H 2.232200 3.447900 -0.115400
C 0.177600 2.181400 7.018100
C 0.132100 3.313900 6.596000
C 0.077300 4.615900 6.063700
C 0.074100 5.728600 6.886800
C 0.019300 7.020900 6.352100
C -0.033200 7.223800 4.996800
C -0.032100 6.115800 4.123100
C -0.084500 6.256600 2.722500
N -0.083400 5.226500 1.905600
C -0.030200 3.963200 2.401100
C 0.023100 3.718000 3.743300
C 0.023700 4.795400 4.652400
H 0.114700 5.595300 7.957200
H 0.018800 7.864100 7.025600
H -0.075400 8.222000 4.591100
H -0.128100 7.246400 2.276900
H -0.032800 3.158900 1.663700
H 0.064900 2.711200 4.126600
C 0.229900 0.857400 7.498500
C 0.272200 0.615800 8.893400
C 0.322200 -0.662800 9.367200
C 0.332900 -1.766100 8.486200
C 0.384000 -3.097900 8.952700
C 0.393300 -4.147900 8.081900
C 0.351600 -3.914700 6.684700
C 0.301300 -2.624200 6.200200
C 0.290800 -1.528400 7.084200
C 0.239500 -0.202400 6.615300
H 0.264200 1.455600 9.572200
H 0.354300 -0.848600 10.431300
H 0.415800 -3.272100 10.018700
H 0.432500 -5.163800 8.445200
H 0.269500 -2.444800 5.136600
H 0.207600 -0.022600 5.551600
C 0.362400 -5.015500 5.805900
C 0.371800 -5.964400 5.056400
C 0.385500 -7.102000 4.228800
C 0.436200 -8.389900 4.781000
C 0.448800 -9.485000 3.936200
C 0.411100 -9.281600 2.565900
N 0.362600 -8.051500 2.042100
C 0.349500 -6.984900 2.835400
H 0.464800 -8.513700 5.852300
H 0.487600 -10.486100 4.334300
H 0.419500 -10.115600 1.863700
H 0.309800 -6.011100 2.355700
C -6.853300 -5.022700 0.142100
C -6.403000 -6.145200 0.144300
C -5.838000 -7.434600 0.145700
C -6.633400 -8.567100 0.162400
C -6.066100 -9.846600 0.163400
C -4.705400 -10.016900 0.147600
C -3.859300 -8.887900 0.130300
C -2.454900 -8.994900 0.112900
N -1.663800 -7.945000 0.096600
C -2.191100 -6.693600 0.096500
C -3.539800 -6.480700 0.112300
C -4.421900 -7.580200 0.129500
H -7.707500 -8.459600 0.174800
H -6.718600 -10.706100 0.176700
H -4.274600 -11.005500 0.148300
H -1.984200 -9.974000 0.112200
H -1.473800 -5.871400 0.083300
H -3.948400 -5.483100 0.111900
C -7.366900 -3.710200 0.140200
C -8.767700 -3.502400 0.158800
C -9.273500 -2.235100 0.157700
C -8.420300 -1.110300 0.138100
C -8.920200 0.210200 0.136900
C -8.075900 1.281600 0.118200
C -6.673000 1.082200 0.099100
C -6.156100 -0.196700 0.099400
C -7.012400 -1.314000 0.119000
C -6.510300 -2.628800 0.120500
H -9.425400 -4.358800 0.174000
H -10.342300 -2.075200 0.171900
H -9.990500 0.358600 0.151400
H -8.464700 2.288700 0.117600
H -5.088000 -0.350200 0.085000
H -5.442200 -2.782700 0.106100
C -5.822000 2.204500 0.080000
C -5.096700 3.172000 0.063300
C -4.297900 4.329900 0.043300
C -4.882200 5.604500 0.055800
C -4.065100 6.720300 0.033700
C -2.690200 6.550300 -0.000800
N -2.135800 5.332700 -0.012300
C -2.902000 4.246700 0.009100
H -5.956300 5.702200 0.082200
H -4.488100 7.711800 0.042800
H -2.009200 7.401400 -0.019600
H -2.398100 3.284500 -0.001300
C -0.304100 2.023200 -7.101000
C -0.331800 3.164800 -6.702400
C -0.361700 4.478200 -6.196600
C -0.440900 5.571400 -7.041600
C -0.470800 6.875100 -6.533200
C -0.422700 7.108700 -5.182700
C -0.341600 6.021300 -4.287100
C -0.290100 6.193700 -2.890100
N -0.214800 5.182800 -2.053000
C -0.182900 3.909000 -2.523000
C -0.228100 3.633500 -3.859600
C -0.310000 4.689700 -4.789700
H -0.480200 5.413900 -8.108900
H -0.532800 7.702500 -7.223300
H -0.446300 8.115500 -4.797200
H -0.312600 7.193000 -2.464500
H -0.118900 3.122000 -1.769900
H -0.202500 2.618700 -4.222400
C -0.271100 0.689100 -7.554200
C -0.317300 0.416200 -8.943200
C -0.285200 -0.872400 -9.390800
C -0.205800 -1.955300 -8.488200
C -0.170700 -3.296700 -8.927600
C -0.093500 -4.326600 -8.036300
C -0.047500 -4.062100 -6.644800
C -0.080400 -2.761400 -6.186700
C -0.159400 -1.686200 -7.092000
C -0.193700 -0.350300 -6.650200
H -0.377900 1.240300 -9.638500
H -0.320300 -1.082000 -10.450400
H -0.206100 -3.494800 -9.989300
H -0.066800 -5.350000 -8.378900
H -0.045200 -2.558200 -5.127400
H -0.158400 -0.146700 -5.590900
C 0.031600 -5.142500 -5.744600
C 0.099100 -6.074400 -4.976800
C 0.175800 -7.193000 -4.127000
C 0.218800 -8.491800 -4.653500
C 0.292300 -9.567700 -3.787200
C 0.321100 -9.334600 -2.421400
N 0.280400 -8.093900 -1.922300
C 0.210300 -7.045500 -2.736500
H 0.194100 -8.639000 -5.721900
H 0.326600 -10.576700 -4.165200
H 0.378100 -10.152600 -1.702900
H 0.180200 -6.062000 -2.276300
