212
cis_l1_lc
Pd   -7.176500   -1.811600   -0.303100
Pd    7.176500   -1.811300    0.303400
 C   -5.032500   -2.005800    1.650500
 N   -6.058400   -2.706700    1.142900
 C   -6.231500   -3.980500    1.521800
 C   -5.359400   -4.611000    2.396200
 C   -4.249600   -3.915600    2.896600
 C   -3.233300   -4.561100    3.747800
 C   -3.596000   -5.514200    4.723900
 C   -2.648400   -6.138100    5.530200
 C   -1.319900   -5.794200    5.318000
 O   -0.246200   -6.305100    5.980800
 C    0.860600   -5.725100    5.442600
 C    2.175500   -5.981400    5.807800
 C    3.166700   -5.307200    5.101600
 C    2.861500   -4.392300    4.069400
 C    3.931200   -3.731300    3.299100
 C    3.748600   -2.455500    2.743100
 C    4.730600   -1.903000    1.940700
 N    5.877100   -2.545700    1.675800
 C    6.097300   -3.745700    2.233800
 C    5.158600   -4.361600    3.044400
 C    1.524300   -4.140000    3.737900
 C    0.520200   -4.816100    4.424500
 C   -0.923700   -4.858700    4.345200
 C   -1.885800   -4.229600    3.561100
 C   -4.117600   -2.570900    2.519000
 H   -4.942500   -0.961400    1.343600
 H   -7.081900   -4.513000    1.091300
 H   -5.528100   -5.659700    2.644100
 H   -4.651200   -5.753400    4.871200
 H   -2.933800   -6.863700    6.292600
 H    2.418300   -6.681800    6.607600
 H    4.209900   -5.482800    5.371500
 H    2.841300   -1.880800    2.930300
 H    4.597200   -0.919100    1.486500
 H    7.048300   -4.229000    1.998400
 H    5.377200   -5.355200    3.436400
 H    1.268200   -3.456200    2.926900
 H   -1.588400   -3.517500    2.788900
 H   -3.305300   -1.953600    2.903700
 C   -6.097000   -3.746500   -2.232800
 N   -5.876800   -2.546400   -1.675000
 C   -4.730400   -1.903600   -1.940100
 C   -3.748300   -2.456300   -2.742500
 C   -3.931000   -3.732200   -3.298200
 C   -2.861300   -4.393300   -4.068400
 C   -3.166400   -5.308500   -5.100400
 C   -2.175200   -5.982800   -5.806500
 C   -0.860200   -5.726300   -5.441400
 O    0.246500   -6.306400   -5.979500
 C    1.320200   -5.795300   -5.316800
 C    2.648700   -6.139200   -5.528900
 C    3.596300   -5.515100   -4.722700
 C    3.233500   -4.561800   -3.746900
 C    4.249700   -3.916100   -2.895800
 C    5.359500   -4.611300   -2.395000
 C    6.231400   -3.980600   -1.520600
 N    6.058300   -2.706700   -1.142100
 C    5.032500   -2.005900   -1.650100
 C    4.117700   -2.571200   -2.518600
 C    1.886000   -4.230300   -3.560200
 C    0.923900   -4.859600   -4.344200
 C   -0.520000   -4.817100   -4.423500
 C   -1.524000   -4.140900   -3.737000
 C   -5.158300   -4.362500   -3.043300
 H   -7.047900   -4.229800   -1.997300
 H   -4.596900   -0.919700   -1.486100
 H   -2.841000   -1.881600   -2.929800
 H   -4.209600   -5.484100   -5.370200
 H   -2.418000   -6.683300   -6.606200
 H    2.934200   -6.865000   -6.291200
 H    4.651500   -5.754300   -4.870000
 H    5.528200   -5.660100   -2.642500
 H    7.081800   -4.512900   -1.089800
 H    4.942500   -0.961300   -1.343600
 H    3.305500   -1.954000   -2.903600
 H    1.588600   -3.518000   -2.788300
 H   -1.267900   -3.456900   -2.926200
 H   -5.376800   -5.356200   -3.435100
 C   10.497700   -1.310700   -2.308500
 C   10.349500   -0.000100   -2.828800
 C    9.178100    0.730300   -2.465400
 C    8.957900    2.049300   -2.974900
 C    9.941900    2.611600   -3.767000
 C   11.111400    1.896900   -4.108300
 C   11.311900    0.608600   -3.667900
 C    7.708700    2.784600   -2.681200
 C    7.747800    4.095000   -2.182800
 C    6.576200    4.797300   -1.930800
 C    5.323400    4.206000   -2.175300
 C    4.112800    4.923200   -1.962600
 C    3.058300    5.521000   -1.837000
 C    1.824000    6.226200   -1.745400
 C    1.809100    7.633000   -1.701500
 C    0.598900    8.315300   -1.653000
 C   -0.605700    7.620200   -1.641200
 C   -0.611000    6.213700   -1.679800
 C   -1.849000    5.506700   -1.703100
 C   -2.925500    4.938800   -1.772400
 C   -4.198100    4.324100   -1.953300
 C   -4.309300    3.071400   -2.585000
 C   -5.557300    2.535400   -2.874800
 C   -6.734700    3.226100   -2.542400
 C   -8.059800    2.733700   -2.982500
 C   -8.499600    1.391500   -2.749300
 C   -9.740200    0.933800   -3.290400
 C  -10.114700   -0.410400   -3.042300
 C   -9.325700   -1.211200   -2.261300
 N   -8.181600   -0.740300   -1.695500
 C   -7.779300    0.495700   -1.932900
 C  -10.551000    1.829000   -4.026400
 C  -10.141500    3.131300   -4.195500
 C   -8.904800    3.577900   -3.681200
 C   -6.620800    4.451900   -1.868300
 C   -5.376500    4.993500   -1.574400
 C    0.609700    5.524500   -1.731100
 C    5.282200    2.890900   -2.674400
 C    6.456500    2.196600   -2.925300
 C    8.291600    0.125300   -1.551400
 N    8.473400   -1.091400   -1.074500
 C    9.555600   -1.823800   -1.457700
 H   11.368300   -1.911600   -2.576400
 H    9.795800    3.617600   -4.165900
 H   11.855700    2.374900   -4.748800
 H   12.206700    0.050400   -3.949800
 H    8.712600    4.564000   -1.977300
 H    6.623000    5.815400   -1.540400
 H    2.753700    8.179500   -1.710900
 H    0.593500    9.406700   -1.617400
 H   -1.554300    8.157600   -1.599000
 H   -3.405100    2.538300   -2.884200
 H   -5.615000    1.588200   -3.416400
 H  -11.041500   -0.806900   -3.459700
 H   -9.585000   -2.247700   -2.042400
 H   -6.864900    0.826400   -1.436600
 H  -11.496600    1.476800   -4.443000
 H  -10.767100    3.831800   -4.752800
 H   -8.590100    4.605900   -3.872900
 H   -7.524500    4.991000   -1.575200
 H   -5.305100    5.954200   -1.061600
 H    0.614900    4.434200   -1.763100
 H    4.317100    2.425300   -2.882000
 H    6.400200    1.188500   -3.343000
 H    7.419900    0.673100   -1.190500
 H    9.637400   -2.826100   -1.035100
 C   10.115600   -0.409600    3.041500
 C    9.741100    0.934700    3.289600
 C    8.500300    1.392200    2.748800
 C    8.060600    2.734400    2.981900
 C    8.905700    3.578800    3.680200
 C   10.142500    3.132300    4.194200
 C   10.552000    1.830000    4.025200
 C    6.735300    3.226700    2.542100
 C    5.558100    2.535900    2.875000
 C    4.310000    3.071800    2.585300
 C    4.198500    4.324200    1.953300
 C    2.925700    4.938700    1.772500
 C    1.849100    5.506400    1.703300
 C    0.611100    6.213300    1.680200
 C    0.605700    7.619700    1.641500
 C   -0.599000    8.314800    1.653400
 C   -1.809100    7.632400    1.701900
 C   -1.823900    6.225700    1.745800
 C   -3.058300    5.520400    1.837400
 C   -4.112800    4.922700    1.962800
 C   -5.323700    4.205800    2.175300
 C   -6.576300    4.797100    1.929700
 C   -7.748100    4.095100    2.181200
 C   -7.709500    2.785000    2.680400
 C   -8.959000    2.050000    2.973500
 C   -9.179200    0.731000    2.464000
 C  -10.351200    0.001000    2.826500
 C  -10.499500   -1.309500    2.306100
 C   -9.556900   -1.823000    1.456100
 N   -8.474000   -1.091300    1.074100
 C   -8.292100    0.125400    1.551000
 C  -11.314200    0.610200    3.664700
 C  -11.113500    1.898500    4.105100
 C   -9.943500    2.612700    3.764700
 C   -6.457500    2.197000    2.925800
 C   -5.283000    2.891000    2.675400
 C   -0.609600    5.524000    1.731500
 C    5.376700    4.993600    1.573900
 C    6.621100    4.452300    1.867600
 C    7.779900    0.496300    1.932700
 N    8.182100   -0.739700    1.695300
 C    9.326400   -1.210600    2.260900
 H   11.042500   -0.806000    3.458700
 H    8.591000    4.606800    3.871800
 H   10.768300    3.832900    4.751200
 H   11.497800    1.477900    4.441600
 H    5.616000    1.588900    3.416900
 H    3.405800    2.538600    2.885000
 H    1.554200    8.157200    1.599300
 H   -0.593600    9.406200    1.617800
 H   -2.753800    8.178900    1.711300
 H   -6.622600    5.815000    1.538600
 H   -8.712700    4.564100    1.974800
 H  -11.370600   -1.910000    2.573200
 H   -9.638900   -2.825300    1.033500
 H   -7.419700    0.672800    1.190900
 H  -12.209400    0.052400    3.945800
 H  -11.858200    2.376800    4.744900
 H   -9.797400    3.618800    4.163500
 H   -6.401700    1.189200    3.344200
 H   -4.318000    2.425500    2.883800
 H   -0.614800    4.433700    1.763500
 H    5.305000    5.954100    1.060800
 H    7.524600    4.991300    1.574100
 H    6.865300    0.826900    1.436700
 H    9.585600   -2.247000    2.042000
