
  xtb     10192012543D
 xtb: 6.3.1 (2faf18d)
 43 47  0     0  0            999 V2000
   -0.3887    0.2757    0.2905 Zn  0  0  0  0  0  0  0  0  0  0  0  0
    1.0152    4.9489    0.7509 C   0  0  0  0  0  0  0  0  0  0  0  0
    1.9013    3.8814    0.7307 C   0  0  0  0  0  0  0  0  0  0  0  0
    1.3965    2.5855    0.6319 C   0  0  0  0  0  0  0  0  0  0  0  0
    2.9660    4.0463    0.7874 H   0  0  0  0  0  0  0  0  0  0  0  0
    0.0777    2.3336    0.5574 N   0  0  0  0  0  0  0  0  0  0  0  0
    2.2956    1.4443    0.6103 C   0  0  0  0  0  0  0  0  0  0  0  0
   -0.7612    3.3588    0.5816 C   0  0  0  0  0  0  0  0  0  0  0  0
   -0.3431    4.6813    0.6769 C   0  0  0  0  0  0  0  0  0  0  0  0
   -1.8139    3.1187    0.5250 H   0  0  0  0  0  0  0  0  0  0  0  0
   -1.0687    5.4786    0.6921 H   0  0  0  0  0  0  0  0  0  0  0  0
    1.3779    5.9625    0.8235 H   0  0  0  0  0  0  0  0  0  0  0  0
    1.8098    0.2730    0.4869 N   0  0  0  0  0  0  0  0  0  0  0  0
    3.3599    1.6504    0.7034 H   0  0  0  0  0  0  0  0  0  0  0  0
    2.9285   -1.2016    0.4700 Br  0  0  0  0  0  0  0  0  0  0  0  0
   -0.4969   -1.1747    4.9571 C   0  0  0  0  0  0  0  0  0  0  0  0
   -0.4294   -2.0318    3.8661 C   0  0  0  0  0  0  0  0  0  0  0  0
   -0.4566   -1.4914    2.5841 C   0  0  0  0  0  0  0  0  0  0  0  0
   -0.3549   -3.0993    4.0050 H   0  0  0  0  0  0  0  0  0  0  0  0
   -0.5465   -0.1696    2.3628 N   0  0  0  0  0  0  0  0  0  0  0  0
   -0.3866   -2.3409    1.4001 C   0  0  0  0  0  0  0  0  0  0  0  0
   -0.6153    0.6417    3.4060 C   0  0  0  0  0  0  0  0  0  0  0  0
   -0.5947    0.1871    4.7210 C   0  0  0  0  0  0  0  0  0  0  0  0
   -0.6925    1.6987    3.1915 H   0  0  0  0  0  0  0  0  0  0  0  0
   -0.6531    0.8901    5.5366 H   0  0  0  0  0  0  0  0  0  0  0  0
   -0.4745   -1.5630    5.9636 H   0  0  0  0  0  0  0  0  0  0  0  0
   -0.4011   -1.8092    0.2505 N   0  0  0  0  0  0  0  0  0  0  0  0
   -0.3240   -3.4151    1.5699 H   0  0  0  0  0  0  0  0  0  0  0  0
   -0.3376   -2.4530   -0.5328 H   0  0  0  0  0  0  0  0  0  0  0  0
   -5.0127    0.6197   -1.2406 C   0  0  0  0  0  0  0  0  0  0  0  0
   -3.9034    0.6112   -2.0769 C   0  0  0  0  0  0  0  0  0  0  0  0
   -2.6341    0.5440   -1.5100 C   0  0  0  0  0  0  0  0  0  0  0  0
   -4.0196    0.6522   -3.1490 H   0  0  0  0  0  0  0  0  0  0  0  0
   -2.4432    0.4915   -0.1809 N   0  0  0  0  0  0  0  0  0  0  0  0
   -1.4335    0.5195   -2.3393 C   0  0  0  0  0  0  0  0  0  0  0  0
   -3.5035    0.5022    0.6108 C   0  0  0  0  0  0  0  0  0  0  0  0
   -4.8076    0.5646    0.1286 C   0  0  0  0  0  0  0  0  0  0  0  0
   -3.3112    0.4606    1.6740 H   0  0  0  0  0  0  0  0  0  0  0  0
   -5.6384    0.5689    0.8159 H   0  0  0  0  0  0  0  0  0  0  0  0
   -6.0096    0.6675   -1.6507 H   0  0  0  0  0  0  0  0  0  0  0  0
   -0.2948    0.4232   -1.7917 N   0  0  0  0  0  0  0  0  0  0  0  0
   -1.5831    0.5823   -3.4169 H   0  0  0  0  0  0  0  0  0  0  0  0
    0.4993    0.4004   -2.4253 H   0  0  0  0  0  0  0  0  0  0  0  0
  2  3  4  0  0  0  0
  3  4  4  0  0  0  0
  3  5  1  0  0  0  0
  1  6  1  0  0  0  0
  4  6  4  0  0  0  0
  4  7  1  0  0  0  0
  6  8  4  0  0  0  0
  2  9  4  0  0  0  0
  8  9  4  0  0  0  0
  8 10  1  0  0  0  0
  9 11  1  0  0  0  0
  2 12  1  0  0  0  0
  7 13  2  0  0  0  0
  7 14  1  0  0  0  0
 13 15  1  0  0  0  0
 16 17  4  0  0  0  0
 17 18  4  0  0  0  0
 17 19  1  0  0  0  0
  1 20  1  0  0  0  0
 18 20  4  0  0  0  0
 18 21  1  0  0  0  0
 20 22  4  0  0  0  0
 16 23  4  0  0  0  0
 22 23  4  0  0  0  0
 22 24  1  0  0  0  0
 23 25  1  0  0  0  0
 16 26  1  0  0  0  0
  1 27  1  0  0  0  0
 21 27  2  0  0  0  0
 21 28  1  0  0  0  0
 27 29  1  0  0  0  0
 30 31  4  0  0  0  0
 31 32  4  0  0  0  0
 31 33  1  0  0  0  0
  1 34  1  0  0  0  0
 32 34  4  0  0  0  0
 32 35  1  0  0  0  0
 34 36  4  0  0  0  0
 30 37  4  0  0  0  0
 36 37  4  0  0  0  0
 36 38  1  0  0  0  0
 37 39  1  0  0  0  0
 30 40  1  0  0  0  0
  1 41  1  0  0  0  0
 35 41  2  0  0  0  0
 35 42  1  0  0  0  0
 41 43  1  0  0  0  0
M  CHG   1   1   2
M  END
