130

Pd -0.139200 4.605000 0.073700
Pd 0.193500 -5.056700 -0.126300
C 4.946400 -1.013800 -0.280700
C 4.546600 -2.146300 -0.413800
C 4.036800 -3.453900 -0.541800
C 4.854600 -4.548400 -0.854900
C 4.283400 -5.804400 -0.957600
C 2.920700 -5.952600 -0.744700
N 2.147300 -4.909000 -0.440400
C 2.674900 -3.688200 -0.341100
H 5.912000 -4.404100 -1.013800
H 4.886700 -6.664200 -1.200200
H 2.430400 -6.918200 -0.821100
H 1.995100 -2.873600 -0.086200
C 5.390600 0.309700 -0.073600
C 6.677000 0.549100 0.415700
C 7.078200 1.848100 0.666400
C 6.217800 2.907400 0.433900
C 4.933800 2.682600 -0.069300
C 4.526400 1.376300 -0.322900
H 7.345500 -0.276800 0.603100
H 8.068100 2.038800 1.051900
H 6.541100 3.909100 0.669700
H 3.555900 1.172300 -0.746500
C 4.028500 3.820100 -0.297800
C 4.510300 5.064500 -0.717200
C 3.635400 6.128200 -0.861000
C 2.290300 5.932900 -0.600800
N 1.821600 4.737000 -0.232900
C 2.655900 3.709000 -0.078800
H 5.558100 5.194100 -0.938000
H 3.992800 7.096300 -1.172400
H 1.566200 6.741100 -0.687600
H 2.208500 2.776000 0.252800
C 0.239500 0.642200 4.882000
C 0.306200 1.774900 4.466600
C 0.358600 3.080700 3.939200
C 0.607600 4.202400 4.742200
C 0.638400 5.454400 4.154200
C 0.418900 5.571700 2.789500
N 0.175800 4.502000 2.030200
C 0.146000 3.284800 2.574200
H 0.773700 4.081700 5.801400
H 0.830500 6.334800 4.745800
H 0.440400 6.533500 2.286100
H -0.061400 2.447900 1.905400
C 0.110300 -0.684800 5.344900
C -0.359300 -0.934200 6.636800
C -0.533300 -2.239700 7.056700
C -0.243600 -3.295700 6.209500
C 0.240700 -3.060100 4.920300
C 0.417200 -1.747100 4.494100
H -0.591200 -0.111200 7.294900
H -0.903200 -2.438600 8.050900
H -0.420300 -4.304700 6.547600
H 0.824400 -1.532500 3.518900
C 0.530600 -4.195000 4.029400
C 1.022300 -5.406600 4.526300
C 1.223400 -6.472400 3.665200
C 0.947700 -6.310800 2.318700
N 0.510700 -5.144400 1.835400
C 0.300800 -4.115500 2.656400
H 1.254100 -5.508800 5.574700
H 1.590800 -7.416200 4.034400
H 1.078000 -7.122700 1.605400
H -0.085400 -3.209300 2.197800
C -4.825800 -1.360200 0.190200
C -4.348900 -2.467100 0.276600
C -3.750200 -3.740800 0.350800
C -4.490300 -4.901000 0.617300
C -3.833900 -6.117900 0.668200
C -2.464600 -6.163100 0.450700
N -1.765400 -5.057000 0.190900
C -2.375700 -3.872400 0.142000
H -5.554700 -4.836400 0.781000
H -4.376300 -7.026500 0.874200
H -1.909000 -7.095100 0.487300
H -1.754000 -3.003000 -0.078100
C -5.360400 -0.063000 0.037600
C -6.661200 0.107300 -0.442300
C -7.151300 1.384800 -0.639700
C -6.365200 2.490300 -0.363100
C -5.067900 2.333800 0.131400
C -4.571100 1.049300 0.331300
H -7.271700 -0.754200 -0.664100
H -8.152800 1.522700 -1.017800
H -6.757200 3.476200 -0.557800
H -3.587900 0.895300 0.746900
C -4.242500 3.520500 0.407500
C -4.808000 4.710500 0.877500
C -4.008000 5.824900 1.066100
C -2.653100 5.733500 0.799500
N -2.104000 4.589000 0.383000
C -2.865900 3.513300 0.185600
H -5.861800 4.758400 1.102400
H -4.430600 6.752500 1.416900
H -1.986200 6.585400 0.920500
H -2.356000 2.627800 -0.183900
C -0.250400 0.827400 -4.894800
C -0.394300 1.934600 -4.432800
C -0.535700 3.210900 -3.852100
C -0.862100 4.344900 -4.608600
C -0.978300 5.566500 -3.969500
C -0.765800 5.642300 -2.600700
N -0.448900 4.561400 -1.885800
C -0.336100 3.372600 -2.479400
H -1.020600 4.256900 -5.672100
H -1.231100 6.455300 -4.524700
H -0.852800 6.578700 -2.058200
H -0.071000 2.525000 -1.845400
C -0.030700 -0.467300 -5.411900
C 0.453700 -0.630200 -6.712000
C 0.716400 -1.902200 -7.185300
C 0.500700 -3.009700 -6.383100
C 0.002700 -2.861500 -5.086100
C -0.263100 -1.582500 -4.606300
H 0.628000 0.233300 -7.335100
H 1.098100 -2.034000 -8.186200
H 0.745900 -3.989400 -6.762200
H -0.683200 -1.436800 -3.623800
C -0.207500 -4.049400 -4.243300
C -0.615200 -5.270500 -4.790600
C -0.741500 -6.382200 -3.974600
C -0.475900 -6.257800 -2.622100
N -0.119600 -5.085100 -2.090400
C 0.018000 -4.011200 -2.867900
H -0.840600 -5.345000 -5.842800
H -1.043500 -7.333000 -4.383000
H -0.549100 -7.105500 -1.943100
H 0.341300 -3.100200 -2.371600
