154

Pd -0.919000 7.094900 0.569600
Pd -0.215200 -4.248900 -0.282200
C 4.204000 -0.292700 -1.060100
C 4.482000 -1.459300 -1.218900
C 4.849400 -2.807000 -1.408200
C 6.156700 -3.135600 -1.713300
C 6.537900 -4.468500 -1.906400
C 5.628100 -5.489700 -1.791600
C 4.287300 -5.204400 -1.474000
C 3.302100 -6.207600 -1.326300
C 2.020800 -5.862700 -1.003700
N 1.653300 -4.570300 -0.823400
C 2.540400 -3.605300 -0.958300
C 3.883700 -3.851000 -1.281800
H 6.893100 -2.352300 -1.808200
H 7.566600 -4.688000 -2.147900
H 5.928000 -6.515300 -1.939300
H 3.575700 -7.241300 -1.466300
H 1.234800 -6.606500 -0.875300
H 2.197000 -2.583700 -0.807800
C 3.846500 1.057200 -0.854200
C 4.636000 1.880100 -0.045600
C 4.271800 3.193500 0.169700
C 3.109900 3.712600 -0.405100
C 2.330600 2.890400 -1.221300
C 2.694300 1.579700 -1.448900
H 5.529500 1.482300 0.410400
H 4.879800 3.813100 0.810700
H 1.458100 3.292500 -1.710100
H 2.104600 0.958300 -2.103400
C 2.719700 5.109400 -0.165700
C 3.666300 6.139100 -0.155600
C 3.256700 7.443000 0.062600
C 1.911200 7.700700 0.266600
N 1.007300 6.720300 0.263000
C 1.387800 5.457400 0.056000
H 4.706800 5.918500 -0.336600
H 3.969200 8.251800 0.069300
H 1.545100 8.708800 0.438500
H 0.597300 4.706200 0.086800
C -0.215800 2.699700 5.019300
C -0.322200 3.876500 5.277200
C -0.377800 5.217400 5.706400
C -0.325700 5.489200 7.061800
C -0.312300 6.805100 7.535200
C -0.339200 7.865500 6.664500
C -0.406300 7.634800 5.278800
C -0.430400 8.685000 4.333700
C -0.524000 8.398400 3.004400
N -0.617400 7.123000 2.543400
C -0.569600 6.115600 3.391300
C -0.446500 6.300000 4.779900
H -0.281500 4.670500 7.763600
H -0.268400 6.979600 8.599300
H -0.310400 8.880500 7.028300
H -0.375100 9.706200 4.675400
H -0.528800 9.189200 2.252700
H -0.635100 5.115700 2.973900
C -0.075500 1.337900 4.679000
C -0.885200 0.370400 5.280000
C -0.752400 -0.957400 4.928000
C 0.185800 -1.346100 3.969900
C 1.015700 -0.379600 3.396600
C 0.889400 0.948200 3.745400
H -1.621100 0.667300 6.010900
H -1.402100 -1.693600 5.375200
H 1.783300 -0.674900 2.699100
H 1.537200 1.690800 3.308300
C 0.234100 -2.742400 3.513200
C 0.095400 -3.837000 4.373600
C 0.065100 -5.116900 3.846700
C 0.125600 -5.288500 2.471400
N 0.257700 -4.247000 1.651500
C 0.341200 -3.011100 2.152100
H 0.025400 -3.682300 5.439100
H -0.025600 -5.975400 4.492100
H 0.069500 -6.267800 2.008900
H 0.482400 -2.202100 1.430800
C -5.263500 2.972700 1.581600
C -5.531900 4.152000 1.597800
C -5.956800 5.494300 1.639000
C -7.284800 5.771100 1.908900
C -7.752700 7.088200 1.963700
C -6.905100 8.145300 1.747800
C -5.547200 7.910900 1.463600
C -4.628200 8.956700 1.226900
C -3.323600 8.665700 0.954100
N -2.865300 7.392000 0.895800
C -3.692900 6.385800 1.109800
C -5.053500 6.574600 1.404200
H -7.969600 4.955600 2.084800
H -8.795000 7.266100 2.179700
H -7.265700 9.161000 1.790800
H -4.967400 9.979500 1.264300
H -2.597300 9.451400 0.767500
H -3.276900 5.381600 1.046800
C -4.931500 1.604100 1.508200
C -3.706400 1.138800 1.994600
C -3.367200 -0.189700 1.852000
C -4.242500 -1.083900 1.230000
C -5.485900 -0.626100 0.791200
C -5.827800 0.703800 0.923800
H -3.030700 1.822500 2.482200
H -2.427800 -0.542900 2.249800
H -6.171700 -1.306500 0.310700
H -6.781300 1.057800 0.563800
C -3.834700 -2.474600 0.989900
C -4.695600 -3.565200 1.145000
C -4.233100 -4.841900 0.871300
C -2.926400 -5.014700 0.444400
N -2.106300 -3.972900 0.291400
C -2.540000 -2.740300 0.554500
H -5.706100 -3.412300 1.490700
H -4.878300 -5.697500 0.989200
H -2.513900 -5.993700 0.214900
H -1.830200 -1.931200 0.395700
C -2.062600 3.312800 -4.373300
C -2.043000 4.519600 -4.456300
C -1.993900 5.904400 -4.705300
C -2.203500 6.357900 -5.996300
C -2.119100 7.717600 -6.309300
C -1.805000 8.641700 -5.344300
C -1.582700 8.225500 -4.019600
C -1.234200 9.128400 -2.989900
C -1.036900 8.667400 -1.722600
N -1.186800 7.356100 -1.395700
C -1.498200 6.482100 -2.331400
C -1.694400 6.846500 -3.675600
H -2.433600 5.646000 -6.774200
H -2.293600 8.034600 -7.326000
H -1.722400 9.689100 -5.587900
H -1.123100 10.176000 -3.220000
H -0.744500 9.341200 -0.914700
H -1.606800 5.447200 -2.023900
C -2.020600 1.912400 -4.218600
C -2.309300 1.331600 -2.980200
C -2.188000 -0.030600 -2.814600
C -1.785400 -0.845200 -3.876500
C -1.548700 -0.269300 -5.124500
C -1.659900 1.096100 -5.295300
H -2.624900 1.956500 -2.160700
H -2.432800 -0.475100 -1.862300
H -1.242800 -0.887900 -5.954000
H -1.454400 1.540600 -6.256900
C -1.593800 -2.283900 -3.645400
C -2.046700 -3.274700 -4.522100
C -1.865700 -4.607200 -4.191400
C -1.257100 -4.935500 -2.988500
N -0.805800 -3.992300 -2.163700
C -0.948400 -2.703800 -2.485900
H -2.550700 -2.999800 -5.435700
H -2.209100 -5.388600 -4.850000
H -1.120500 -5.964700 -2.675200
H -0.509900 -1.976300 -1.798500
