154

Pd 1.097000 6.339000 -0.843300
Pd 0.562500 -4.927700 -0.688200
C 5.606300 -1.228800 -1.333600
C 5.692300 -2.434700 -1.375900
C 5.896600 -3.827000 -1.439400
C 7.170600 -4.317900 -1.662200
C 7.414900 -5.693600 -1.719700
C 6.394500 -6.597800 -1.560000
C 5.081800 -6.143800 -1.340000
C 3.988800 -7.025600 -1.177100
C 2.735100 -6.525100 -0.978900
N 2.496400 -5.189600 -0.931400
C 3.487600 -4.335300 -1.070200
C 4.815700 -4.744800 -1.277500
H 7.989300 -3.625900 -1.787900
H 8.422400 -6.040600 -1.891300
H 6.584900 -7.658600 -1.603200
H 4.159700 -8.089800 -1.214500
H 1.873700 -7.187100 -0.850500
H 3.242100 -3.279700 -1.019300
C 5.425800 0.169000 -1.282200
C 6.104100 1.008600 -2.170300
C 5.879000 2.370300 -2.144300
C 4.970200 2.921300 -1.239600
C 4.321700 2.081900 -0.330300
C 4.546300 0.722500 -0.346800
H 6.794700 0.586100 -2.883900
H 6.386800 3.005900 -2.853200
H 3.661900 2.503000 0.411200
H 4.053600 0.078600 0.363100
C 4.668700 4.359600 -1.254500
C 5.655400 5.336600 -1.425900
C 5.298500 6.673800 -1.426800
C 3.966400 7.020400 -1.257900
N 3.027600 6.090800 -1.104000
C 3.354000 4.796700 -1.103200
H 6.688800 5.047300 -1.538100
H 6.043100 7.443100 -1.551900
H 3.640200 8.054100 -1.246800
H 2.531900 4.080900 -0.996500
C 1.525900 2.439200 4.069600
C 1.656200 3.635400 4.194300
C 1.822200 5.011800 4.442500
C 2.093900 5.443200 5.728600
C 2.253300 6.802400 6.016200
C 2.147800 7.749000 5.027700
C 1.881000 7.355600 3.704100
C 1.769200 8.282600 2.642500
C 1.521900 7.839300 1.376000
N 1.377600 6.519100 1.094800
C 1.465600 5.624600 2.056000
C 1.715500 5.974200 3.393900
H 2.178100 4.717300 6.522800
H 2.460800 7.102600 7.031900
H 2.269300 8.797100 5.251500
H 1.884100 9.335100 2.847200
H 1.431000 8.537000 0.538300
H 1.337300 4.584000 1.777200
C 1.375000 1.055200 3.844200
C 0.415300 0.598800 2.935600
C 0.304100 -0.748000 2.666900
C 1.140600 -1.671200 3.299400
C 2.068900 -1.216000 4.237100
C 2.189800 0.132400 4.506400
H -0.238700 1.307600 2.454700
H -0.455700 -1.093300 1.984200
H 2.722100 -1.917100 4.733100
H 2.921600 0.480100 5.219100
C 1.056600 -3.096500 2.951400
C 1.142600 -4.113900 3.907900
C 1.053600 -5.435900 3.507600
C 0.881400 -5.727100 2.162800
N 0.808800 -4.759700 1.252800
C 0.894600 -3.479800 1.621300
H 1.259300 -3.866300 4.951500
H 1.111800 -6.235300 4.228300
H 0.801700 -6.746500 1.802800
H 0.851900 -2.732500 0.821800
C -4.108200 -0.751900 -0.154000
C -4.308000 -1.942600 -0.079500
C -4.643200 -3.307100 0.021000
C -5.958000 -3.669000 0.253400
C -6.331400 -5.013400 0.347600
C -5.401100 -6.014100 0.215600
C -4.051200 -5.692500 -0.013000
C -3.046500 -6.677800 -0.148700
C -1.751100 -6.303800 -0.357200
N -1.387100 -4.998600 -0.440700
C -2.293000 -4.050900 -0.327900
C -3.654000 -4.327100 -0.112800
H -6.707600 -2.899500 0.357700
H -7.367200 -5.258700 0.525600
H -5.691000 -7.050500 0.287200
H -3.317300 -7.719600 -0.082500
H -0.956200 -7.047600 -0.465200
H -1.948800 -3.025000 -0.406900
C -3.796100 0.620600 -0.242800
C -2.869400 1.062900 -1.191700
C -2.517100 2.394000 -1.244700
C -3.081900 3.315300 -0.359100
C -4.037400 2.877400 0.559200
C -4.390500 1.544300 0.621700
H -2.440900 0.356300 -1.883500
H -1.821400 2.730500 -1.996500
H -4.481700 3.577100 1.250000
H -5.116900 1.208600 1.345600
C -2.645400 4.718400 -0.382900
C -3.535000 5.788700 -0.239000
C -3.053100 7.085700 -0.274000
C -1.694500 7.299900 -0.450800
N -0.848100 6.281800 -0.578400
C -1.295500 5.024900 -0.544500
H -4.591000 5.601700 -0.120100
H -3.721400 7.925100 -0.170600
H -1.271900 8.297300 -0.489600
H -0.545100 4.231800 -0.630800
C 0.294400 2.363800 -5.648200
C 0.277900 3.563000 -5.805700
C 0.242600 4.941700 -6.091700
C 0.011300 5.361400 -7.389500
C -0.019100 6.721200 -7.714500
C 0.176900 7.680300 -6.752200
C 0.407000 7.299900 -5.417900
C 0.607400 8.240900 -4.382000
C 0.813100 7.811100 -3.103500
N 0.832200 6.491400 -2.786000
C 0.658700 5.583300 -3.722400
C 0.441400 5.918100 -5.069800
H -0.142400 4.625300 -8.163600
H -0.198600 7.011800 -8.738300
H 0.154800 8.728700 -7.004800
H 0.592300 9.293600 -4.615700
H 0.970700 8.519800 -2.285200
H 0.688400 4.543200 -3.414900
C 0.313900 0.978400 -5.384700
C -0.585200 0.119000 -6.022500
C -0.592100 -1.227000 -5.716000
C 0.290000 -1.741900 -4.764800
C 1.210800 -0.885000 -4.156700
C 1.227200 0.458500 -4.462500
H -1.281700 0.514500 -6.745600
H -1.309300 -1.876500 -6.193600
H 1.935200 -1.281600 -3.463600
H 1.945800 1.115200 -4.000300
C 0.239300 -3.158600 -4.377600
C 0.056600 -4.189400 -5.305900
C 0.021000 -5.502300 -4.869200
C 0.166300 -5.771400 -3.516700
N 0.330800 -4.790400 -2.633600
C 0.365700 -3.518800 -3.037200
H -0.037200 -3.960700 -6.356100
H -0.113200 -6.312200 -5.567800
H 0.149800 -6.783400 -3.128700
H 0.479600 -2.757100 -2.258500
