154

Pd -0.379200 4.463500 0.546700
Pd -0.066700 -6.845800 1.250600
C 4.578400 -3.065300 1.687900
C 4.822100 -4.249800 1.716600
C 5.166200 -5.614900 1.709400
C 6.494800 -5.993200 1.773400
C 6.863200 -7.342200 1.729400
C 5.917700 -8.329100 1.602800
C 4.553800 -7.991200 1.530300
C 3.532800 -8.955700 1.374900
C 2.228300 -8.560200 1.308400
N 1.865600 -7.258000 1.410500
C 2.789300 -6.327100 1.548900
C 4.160700 -6.623000 1.601000
H 7.258500 -5.235200 1.857300
H 7.909300 -7.601500 1.787000
H 6.206400 -9.367300 1.554200
H 3.796500 -9.998800 1.303600
H 1.420500 -9.276000 1.169100
H 2.448700 -5.296800 1.627400
C 4.256700 -1.694700 1.615000
C 5.179500 -0.782200 1.094800
C 4.847100 0.552500 0.987500
C 3.589700 1.005900 1.390400
C 2.677400 0.093500 1.926700
C 3.004500 -1.240500 2.039900
H 6.148700 -1.128500 0.770800
H 5.558100 1.243100 0.561100
H 1.720000 0.438100 2.285900
H 2.301800 -1.939900 2.463000
C 3.224300 2.422100 1.256400
C 4.126100 3.453100 1.539000
C 3.716700 4.770700 1.423400
C 2.411000 5.041700 1.048800
N 1.551800 4.059000 0.772400
C 1.940700 2.785700 0.854700
H 5.128100 3.220900 1.864900
H 4.396500 5.579800 1.636200
H 2.035400 6.057900 0.962900
H 1.200900 2.038800 0.569600
C -0.624300 -2.882600 5.815300
C -0.621900 -4.066100 6.064400
C -0.676900 -5.425400 6.434400
C -0.836000 -5.765400 7.764600
C -0.949400 -7.103400 8.158700
C -0.917600 -8.116500 7.233800
C -0.746700 -7.817600 5.869700
C -0.713700 -8.813200 4.867400
C -0.527400 -8.458200 3.563100
N -0.348100 -7.167600 3.187300
C -0.391200 -6.207300 4.089900
C -0.605400 -6.461100 5.454900
H -0.884300 -4.985400 8.509000
H -1.074000 -7.331900 9.206100
H -1.021800 -9.146000 7.538300
H -0.838100 -9.847700 5.144700
H -0.513400 -9.199300 2.765800
H -0.245400 -5.187700 3.739200
C -0.627500 -1.512400 5.475900
C 0.322300 -0.645200 6.022400
C 0.333400 0.685600 5.657700
C -0.595100 1.176600 4.738100
C -1.561200 0.313300 4.217600
C -1.582000 -1.016300 4.582900
H 1.051000 -1.023100 6.722600
H 1.086700 1.341700 6.065400
H -2.318700 0.695600 3.552500
H -2.340600 -1.676400 4.193700
C -0.531300 2.578300 4.300700
C -0.281100 3.626600 5.191500
C -0.195700 4.923400 4.713400
C -0.330900 5.152100 3.354000
N -0.562200 4.151300 2.502000
C -0.678900 2.901700 2.953900
H -0.172300 3.425100 6.245800
H -0.017000 5.747600 5.384600
H -0.255000 6.148800 2.927300
H -0.884000 2.137500 2.205100
C -5.023400 0.683400 0.105000
C -5.268300 1.867900 0.084700
C -5.613300 3.232700 0.102300
C -6.942100 3.610700 0.044400
C -7.311200 4.959100 0.099500
C -6.366000 5.945700 0.231100
C -5.001600 5.608000 0.297400
C -3.980700 6.572000 0.456800
C -2.675800 6.176800 0.516200
N -2.312800 4.875600 0.403700
C -3.236400 3.945200 0.261400
C -4.608000 4.240600 0.215500
H -7.705700 2.853000 -0.043200
H -8.357500 5.218300 0.046600
H -6.655100 6.983300 0.288300
H -4.244800 7.614400 0.536500
H -1.867700 6.891900 0.658000
H -2.895400 2.915600 0.174200
C -4.700800 -0.687300 0.170300
C -3.445000 -1.137500 -0.248400
C -3.116900 -2.471700 -0.140500
C -4.031900 -3.388300 0.383700
C -5.293100 -2.939100 0.779500
C -5.626300 -1.604200 0.677800
H -2.740200 -0.434800 -0.662300
H -2.156500 -2.813000 -0.494700
H -6.006400 -3.633200 1.196200
H -6.598500 -1.261100 0.996600
C -3.665500 -4.804700 0.513400
C -4.562800 -5.835400 0.216000
C -4.152700 -7.153000 0.329200
C -2.850700 -7.424000 0.716300
N -1.995800 -6.441500 1.006600
C -2.385600 -5.168300 0.926500
H -5.561600 -5.602800 -0.119000
H -4.829000 -7.961900 0.105100
H -2.474500 -8.440100 0.801300
H -1.649900 -4.421900 1.223100
C 0.132800 0.498400 -4.020400
C 0.118100 1.681500 -4.271200
C 0.157300 3.040600 -4.643800
C 0.287300 3.380000 -5.977400
C 0.384500 4.718200 -6.375100
C 0.365400 5.732200 -5.450800
C 0.223800 5.433900 -4.083200
C 0.204700 6.430400 -3.081400
C 0.045200 6.076000 -1.773400
N -0.119800 4.784900 -1.393100
C -0.088100 3.823700 -2.295300
C 0.098800 4.077000 -3.664300
H 0.325400 2.599500 -6.721800
H 0.486300 4.946300 -7.425100
H 0.457300 6.762000 -5.758400
H 0.317900 7.465400 -3.362100
H 0.042300 6.817800 -0.976700
H -0.221000 2.803800 -1.940700
C 0.149200 -0.871400 -3.679900
C -0.795000 -1.746900 -4.223000
C -0.793600 -3.077500 -3.857700
C 0.141700 -3.560000 -2.940600
C 1.101900 -2.688300 -2.423100
C 1.110500 -1.358900 -2.789500
H -1.529100 -1.375600 -4.921000
H -1.542300 -3.740400 -4.262900
H 1.864200 -3.064000 -1.759600
H 1.864900 -0.692300 -2.403200
C 0.090700 -4.962100 -2.502600
C -0.149900 -6.012800 -3.393300
C -0.224600 -7.310100 -2.914900
C -0.089600 -7.537000 -1.555200
N 0.132300 -6.534000 -0.703300
C 0.240000 -5.283700 -1.155600
H -0.259800 -5.812400 -4.447700
H -0.395400 -8.136000 -3.586100
H -0.157800 -8.534100 -1.128100
H 0.438900 -4.517800 -0.406900
