202

Pd -0.748200 6.801600 -0.257900
Pd 0.682500 -6.854300 -0.100400
C 5.499200 -3.519600 -0.869900
C 5.466100 -4.165300 0.153200
C 5.520900 -4.993200 1.293800
C 6.639800 -4.988200 2.105300
C 6.765500 -5.895800 3.163500
C 5.802700 -6.844300 3.404400
C 4.645800 -6.885600 2.605600
C 3.630200 -7.856300 2.756900
C 2.534200 -7.831400 1.942800
N 2.348000 -6.862300 1.011400
C 3.281200 -5.945700 0.835100
C 4.476200 -5.925000 1.567700
H 7.434100 -4.284600 1.908400
H 7.650800 -5.859100 3.780100
H 5.923700 -7.567000 4.195900
H 3.735000 -8.620400 3.510500
H 1.758300 -8.586800 2.012700
H 3.104300 -5.176100 0.087100
C 5.677600 -2.824800 -2.087100
C 6.643100 -3.338100 -2.973600
C 6.945400 -2.695400 -4.152700
C 6.275600 -1.512600 -4.435400
N 6.430900 -0.661500 -5.497000
C 5.599400 0.409700 -5.341500
C 5.451300 1.533700 -6.145700
C 4.541900 2.488700 -5.755700
C 3.780600 2.336200 -4.580300
C 3.926800 1.208700 -3.773100
C 4.843100 0.243200 -4.152200
C 5.286100 -0.994600 -3.564100
C 4.979700 -1.658900 -2.385700
H 7.160800 -4.247600 -2.709000
H 7.694900 -3.087900 -4.822800
H 7.101600 -0.776200 -6.238600
H 6.039700 1.656400 -7.042200
H 4.409000 3.381600 -6.347100
H 3.344000 1.102300 -2.873100
H 4.244300 -1.268000 -1.701800
C 2.897400 3.370200 -4.227600
C 2.179300 4.304000 -3.950700
C 1.405800 5.431600 -3.636000
C 1.238200 6.473600 -4.561800
C 0.509300 7.589700 -4.198800
C -0.040000 7.656700 -2.926800
N 0.113300 6.659400 -2.049700
C 0.808000 5.572200 -2.379400
H 1.683300 6.393700 -5.540900
H 0.368500 8.405700 -4.888900
H -0.614600 8.517100 -2.592100
H 0.900000 4.796600 -1.621900
C 1.390800 4.044000 4.565900
C 2.178800 4.707900 3.932000
C 3.108200 5.554500 3.292700
C 4.388400 5.689100 3.795900
C 5.286900 6.608700 3.242800
C 4.914100 7.428700 2.207000
C 3.622200 7.324200 1.660900
C 3.150900 8.159400 0.623200
C 1.885500 7.997600 0.138000
N 1.059600 7.016900 0.586100
C 1.459500 6.227500 1.565900
C 2.716800 6.352100 2.176400
H 4.691900 5.086100 4.637900
H 6.279900 6.684100 3.659300
H 5.597600 8.161200 1.807600
H 3.794500 8.929000 0.228000
H 1.484400 8.649000 -0.632200
H 0.773400 5.452700 1.900200
C 0.473400 3.328700 5.367300
C -0.017200 3.963300 6.523200
C -0.900100 3.328100 7.368700
C -1.286800 2.032900 7.049800
N -2.129200 1.185300 7.720600
C -2.185300 -0.010600 7.062100
C -2.884200 -1.167600 7.388900
C -2.744200 -2.260000 6.563900
C -1.921800 -2.211800 5.421100
C -1.235200 -1.045900 5.080600
C -1.366500 0.058000 5.904700
C -0.792900 1.378300 5.894300
C 0.085600 2.031900 5.043800
H 0.314400 4.965800 6.747100
H -1.270000 3.819800 8.255200
H -2.597000 1.395000 8.586900
H -3.508000 -1.212500 8.268700
H -3.263300 -3.177900 6.794700
H -0.607700 -1.017200 4.204500
H 0.474100 1.547200 4.162800
C -1.776000 -3.374900 4.645900
C -1.636300 -4.394300 4.008700
C -1.474900 -5.600700 3.309600
C -2.137500 -6.769500 3.717100
C -1.934400 -7.940700 3.012400
C -1.083000 -7.933900 1.917500
N -0.456400 -6.818900 1.528800
C -0.636300 -5.679700 2.192300
H -2.792800 -6.742100 4.573500
H -2.428600 -8.852900 3.305100
H -0.893000 -8.831700 1.333300
H -0.092600 -4.807600 1.833800
C -5.147300 3.463600 2.029900
C -4.586500 4.226700 2.783600
C -4.073000 5.197700 3.667700
C -4.610900 5.330900 4.934500
C -4.227200 6.382600 5.773800
C -3.330200 7.333300 5.354300
C -2.752500 7.235100 4.075900
C -1.860100 8.199500 3.555600
C -1.344200 8.046100 2.301300
N -1.617700 6.956500 1.538000
C -2.454100 6.038600 1.986800
C -3.090200 6.136500 3.233300
H -5.353500 4.623300 5.269800
H -4.668200 6.455000 6.756400
H -3.066700 8.164600 5.989100
H -1.603900 9.061000 4.151300
H -0.688600 8.790000 1.857700
H -2.646000 5.178500 1.349400
C -5.924100 2.673500 1.153500
C -7.227400 3.133400 0.883200
C -8.068300 2.445500 0.037900
C -7.595000 1.270600 -0.531500
N -8.227100 0.406900 -1.386000
C -7.400800 -0.647000 -1.654800
C -7.635300 -1.769500 -2.441100
C -6.644800 -2.720900 -2.515300
C -5.427900 -2.564200 -1.821900
C -5.179600 -1.424500 -1.056000
C -6.171100 -0.461400 -0.970000
C -6.293400 0.783000 -0.253600
C -5.448600 1.495100 0.585900
H -7.563700 4.046200 1.350900
H -9.065000 2.804500 -0.167800
H -9.170300 0.507900 -1.722900
H -8.570600 -1.898300 -2.964200
H -6.798500 -3.612500 -3.103900
H -4.245500 -1.312400 -0.529700
H -4.455100 1.140800 0.808500
C -4.497200 -3.616300 -1.879600
C -3.757700 -4.573800 -1.921300
C -2.954700 -5.725600 -1.921500
C -3.386300 -6.909800 -2.540700
C -2.593600 -8.038900 -2.463100
C -1.393500 -7.979700 -1.769400
N -0.977800 -6.848300 -1.193700
C -1.719000 -5.745000 -1.266800
H -4.331400 -6.928700 -3.060300
H -2.902800 -8.961900 -2.926100
H -0.745800 -8.847000 -1.669600
H -1.328800 -4.851500 -0.783600
C -1.926500 3.216000 -4.629200
C -2.932200 3.647300 -4.112300
C -4.081200 4.292500 -3.608100
C -5.332200 4.050200 -4.140000
C -6.433500 4.829500 -3.764100
C -6.300900 5.877100 -2.886500
C -5.050100 6.146300 -2.301800
C -4.812600 7.220300 -1.414600
C -3.567500 7.410800 -0.886000
N -2.539800 6.559100 -1.134400
C -2.723800 5.551100 -1.967700
C -3.938600 5.317500 -2.625200
H -5.454900 3.270900 -4.876400
H -7.396300 4.616700 -4.203300
H -7.143800 6.503200 -2.640100
H -5.617900 7.894000 -1.169000
H -3.347100 8.249600 -0.234900
H -1.891400 4.872600 -2.139400
C -0.793300 2.781400 -5.353400
C -0.357400 3.602900 -6.409700
C 0.685300 3.227100 -7.226700
C 1.299000 2.007600 -6.974800
N 2.313800 1.387000 -7.654000
C 2.579600 0.182600 -7.068100
C 3.501300 -0.793100 -7.429900
C 3.564400 -1.937100 -6.667900
C 2.727600 -2.114400 -5.550500
C 1.807200 -1.133600 -5.180700
C 1.728500 0.016100 -5.945400
C 0.895000 1.188400 -5.892500
C -0.158400 1.575200 -5.077900
H -0.873300 4.533600 -6.590700
H 0.999800 3.851100 -8.048800
H 2.749800 1.735200 -8.491600
H 4.138800 -0.661700 -8.290700
H 4.259600 -2.721200 -6.926200
H 1.165100 -1.280900 -4.328000
H -0.494600 0.949700 -4.267300
C 2.784500 -3.318500 -4.829200
C 2.790500 -4.373200 -4.236500
C 2.723100 -5.594700 -3.548700
C 3.422400 -6.735500 -3.971700
C 3.274200 -7.915200 -3.267000
C 2.443900 -7.946000 -2.155100
N 1.789500 -6.856000 -1.748100
C 1.914400 -5.709600 -2.413500
H 4.059800 -6.682600 -4.840400
H 3.794500 -8.808300 -3.573200
H 2.297100 -8.850600 -1.571600
H 1.352600 -4.853500 -2.040200
