202

Pd -0.206400 7.765000 -0.359600
Pd 0.053400 -5.936800 0.266000
C 4.745300 -2.525000 0.053800
C 4.534400 -3.085800 -0.997400
C 4.354500 -3.849500 -2.170100
C 5.242500 -3.761300 -3.224100
C 5.141300 -4.625700 -4.321700
C 4.186700 -5.611400 -4.367100
C 3.256000 -5.733100 -3.319200
C 2.267700 -6.741300 -3.260900
C 1.396600 -6.787200 -2.209700
N 1.398900 -5.851500 -1.225800
C 2.315900 -4.901700 -1.244200
C 3.305500 -4.814700 -2.232700
H 6.036700 -3.031500 -3.190700
H 5.850300 -4.527100 -5.129700
H 4.143600 -6.302100 -5.194400
H 2.215200 -7.478900 -4.045700
H 0.656300 -7.574900 -2.122900
H 2.292800 -4.153100 -0.456300
C 5.101000 -1.916200 1.278400
C 5.972300 -2.623700 2.126600
C 6.435200 -2.071300 3.300100
C 6.014500 -0.788500 3.623500
N 6.355000 -0.002800 4.692900
C 5.722500 1.202900 4.588100
C 5.790000 2.314200 5.420600
C 5.053500 3.424800 5.077800
C 4.249600 3.437900 3.922700
C 4.172200 2.320800 3.090900
C 4.914700 1.202000 3.422000
C 5.110800 -0.078800 2.795700
C 4.651300 -0.644100 1.616500
H 6.297800 -3.609800 1.831600
H 7.119800 -2.611300 3.935900
H 7.017300 -0.252000 5.408600
H 6.412400 2.309400 6.302300
H 5.091400 4.309800 5.694400
H 3.558500 2.340800 2.205400
H 3.983300 -0.106300 0.964000
C 3.557900 4.610600 3.577100
C 3.002300 5.632200 3.243000
C 2.384200 6.816200 2.812400
C 2.544100 8.031300 3.496600
C 1.930100 9.167600 3.004700
C 1.166300 9.082800 1.849300
N 1.012500 7.924100 1.202400
C 1.596600 6.816900 1.656100
H 3.144200 8.066700 4.392300
H 2.039200 10.114500 3.508200
H 0.664400 9.948600 1.425300
H 1.441700 5.904000 1.081500
C -0.990100 5.054100 4.876200
C -1.935700 5.671200 4.440700
C -3.024500 6.472900 4.038800
C -4.137000 6.589300 4.851000
C -5.170300 7.478900 4.534300
C -5.094600 8.291400 3.430200
C -3.982500 8.206200 2.573600
C -3.806200 9.036200 1.443700
C -2.699300 8.894400 0.657100
N -1.767700 7.934500 0.887800
C -1.894300 7.148100 1.940500
C -2.955200 7.258800 2.850300
H -4.200100 5.996400 5.750600
H -6.026200 7.539000 5.189200
H -5.875000 9.003500 3.212700
H -4.545700 9.787500 1.217200
H -2.519600 9.543400 -0.194000
H -1.138500 6.382500 2.097800
C 0.095900 4.416400 5.517000
C 0.649800 5.078100 6.629100
C 1.663900 4.511300 7.367300
C 2.115500 3.254300 6.988400
N 3.061400 2.459600 7.579200
C 3.149700 1.280700 6.897200
C 3.941700 0.168800 7.159400
C 3.832500 -0.912500 6.316600
C 2.947800 -0.898200 5.220800
C 2.154600 0.217400 4.954600
C 2.252900 1.310700 5.797600
C 1.581300 2.583300 5.861000
C 0.570000 3.171500 5.115800
H 0.256800 6.043900 6.908500
H 2.077400 5.019000 8.225100
H 3.563200 2.684600 8.422300
H 4.613200 0.152400 8.004100
H 4.421800 -1.798800 6.495600
H 1.477700 0.218600 4.116300
H 0.139400 2.667100 4.266400
C 2.860600 -2.053700 4.426300
C 2.796200 -3.085100 3.796800
C 2.698900 -4.308700 3.116500
C 3.619800 -5.343600 3.345000
C 3.463000 -6.546200 2.683200
C 2.398400 -6.705800 1.807700
N 1.526700 -5.717800 1.587100
C 1.660000 -4.548500 2.211600
H 4.434400 -5.189900 4.034800
H 4.154200 -7.357900 2.842500
H 2.231000 -7.633700 1.266600
H 0.915900 -3.783500 1.993700
C -5.149000 -3.082000 0.681200
C -4.783600 -3.685500 1.664600
C -4.464900 -4.468800 2.793500
C -5.342100 -4.537500 3.859700
C -5.107600 -5.407900 4.930600
C -4.021800 -6.248000 4.938500
C -3.101000 -6.211400 3.876000
C -1.984200 -7.072200 3.785300
C -1.132200 -6.977400 2.722600
N -1.285000 -6.036300 1.756400
C -2.323100 -5.222200 1.803100
C -3.294600 -5.284100 2.812000
H -6.228600 -3.922000 3.856500
H -5.811800 -5.430800 5.748400
H -3.867300 -6.944900 5.747100
H -1.819300 -7.809700 4.554500
H -0.288900 -7.650900 2.608100
H -2.417600 -4.472500 1.021200
C -5.711000 -2.456500 -0.454300
C -6.807400 -3.104200 -1.054300
C -7.472700 -2.545000 -2.121600
C -7.036500 -1.309500 -2.580800
N -7.552700 -0.524500 -3.577100
C -6.836400 0.634600 -3.654600
C -7.025000 1.732400 -4.486100
C -6.161900 2.795100 -4.355200
C -5.117900 2.776000 -3.410000
C -4.925400 1.674400 -2.576900
C -5.789700 0.600100 -2.696800
C -5.923600 -0.653300 -1.999800
C -5.251600 -1.234200 -0.934500
H -7.133500 -4.052500 -0.654800
H -8.319100 -3.041600 -2.570700
H -8.372000 -0.741100 -4.120200
H -7.830300 1.752900 -5.204400
H -6.284600 3.670500 -4.974400
H -4.126500 1.669500 -1.853900
H -4.414700 -0.740300 -0.468700
C -4.299700 3.913400 -3.305400
C -3.648200 4.930300 -3.230200
C -2.943100 6.139100 -3.124000
C -3.092000 7.155000 -4.081500
C -2.409400 8.344800 -3.916300
C -1.591800 8.510400 -2.807500
N -1.446600 7.540100 -1.900800
C -2.092500 6.383400 -2.041100
H -3.738200 6.997200 -4.930400
H -2.508100 9.141900 -4.635200
H -1.037400 9.428900 -2.632000
H -1.937000 5.632800 -1.267300
C 0.185000 4.230000 -4.946600
C 1.236800 4.769900 -4.689300
C 2.416800 5.509000 -4.460700
C 3.517300 5.372100 -5.283700
C 4.629200 6.211900 -5.140500
C 4.645300 7.220800 -4.209500
C 3.549400 7.392100 -3.344200
C 3.460600 8.426700 -2.386000
C 2.362900 8.520700 -1.578300
N 1.357100 7.609300 -1.614500
C 1.403300 6.636000 -2.505400
C 2.444200 6.499400 -3.433900
H 3.510700 4.622700 -6.060300
H 5.473600 6.075200 -5.798900
H 5.486300 7.892000 -4.135600
H 4.259800 9.146300 -2.306400
H 2.254300 9.329100 -0.863800
H 0.596400 5.907600 -2.509600
C -1.033000 3.642700 -5.356800
C -1.812500 4.348700 -6.291200
C -2.972100 3.813700 -6.806600
C -3.351600 2.550100 -6.374800
N -4.420200 1.782600 -6.756500
C -4.382100 0.590900 -6.090700
C -5.238100 -0.501000 -6.178900
C -4.965900 -1.600800 -5.397900
C -3.858300 -1.621900 -4.529800
C -3.003600 -0.524000 -4.432000
C -3.263500 0.583600 -5.218400
C -2.594200 1.843300 -5.409200
C -1.428400 2.390900 -4.897100
H -1.474500 5.318900 -6.622500
H -3.554400 4.351800 -7.538700
H -5.091000 2.032500 -7.464000
H -6.083000 -0.490300 -6.850100
H -5.602100 -2.471100 -5.449700
H -2.154600 -0.550200 -3.768900
H -0.828500 1.854100 -4.180700
C -3.582300 -2.785000 -3.792000
C -3.306100 -3.799900 -3.194000
C -2.941300 -4.977900 -2.524200
C -3.646200 -6.179700 -2.693800
C -3.219000 -7.311700 -2.025700
C -2.106800 -7.235400 -1.199300
N -1.440300 -6.089100 -1.036500
C -1.831800 -4.986500 -1.672100
H -4.507100 -6.208800 -3.343100
H -3.739500 -8.248600 -2.140700
H -1.734300 -8.098200 -0.653200
H -1.243700 -4.084100 -1.506600
