154

Pd 0.125800 5.029500 -0.038800
Pd -1.973300 -4.492900 1.364700
C 4.910400 1.238100 -0.763900
C 4.936500 2.345300 -1.249200
C 5.082400 3.625400 -1.815400
C 6.263300 3.948800 -2.459900
C 6.464300 5.219900 -3.006800
C 5.498800 6.190300 -2.905700
C 4.284000 5.907000 -2.256200
C 3.261900 6.869200 -2.100200
C 2.109200 6.536300 -1.453200
N 1.888700 5.290200 -0.963700
C 2.819000 4.363000 -1.089400
C 4.052700 4.609100 -1.713600
H 7.043000 3.206600 -2.538200
H 7.397000 5.435600 -3.505300
H 5.659700 7.175100 -3.315400
H 3.406000 7.864500 -2.488800
H 1.314100 7.262600 -1.309800
H 2.592700 3.381700 -0.681600
C 4.864500 -0.049300 -0.189000
C 6.051300 -0.738400 0.080800
C 5.997900 -2.000900 0.642800
C 4.780200 -2.595200 0.925900
C 3.588400 -1.914700 0.662700
C 3.637700 -0.636000 0.112300
H 7.001200 -0.280300 -0.148300
H 6.914400 -2.528800 0.858300
H 4.758800 -3.571200 1.383700
H 2.730200 -0.106800 -0.130000
C 2.294500 -2.531200 0.958200
C 2.076400 -3.898000 0.762000
C 0.841400 -4.431700 1.027100
N -0.169400 -3.676300 1.483900
C 0.014400 -2.364000 1.677600
C 1.223200 -1.765700 1.429400
H 2.860100 -4.531700 0.379400
H 0.611900 -5.483400 0.891400
H -0.846600 -1.825700 2.050300
H 1.343800 -0.711000 1.614500
C 2.603900 0.798700 4.645900
C 2.649300 1.992600 4.445500
C 2.905900 3.378600 4.524800
C 3.719400 3.763900 5.581100
C 4.059400 5.099100 5.802100
C 3.593400 6.078900 4.963000
C 2.771200 5.735500 3.876800
C 2.275000 6.717400 2.991300
C 1.485700 6.349900 1.945300
N 1.145500 5.051600 1.710100
C 1.585200 4.106800 2.520000
C 2.408000 4.375700 3.633000
H 4.092400 3.006600 6.253500
H 4.691000 5.352600 6.639600
H 3.848200 7.114700 5.123300
H 2.528800 7.752700 3.154100
H 1.095000 7.100100 1.253200
H 1.275000 3.092300 2.297700
C 2.600800 -0.586300 4.928500
C 3.741700 -1.148000 5.514500
C 3.754200 -2.489100 5.848000
C 2.654500 -3.291000 5.591700
C 1.511800 -2.746900 5.004300
C 1.490100 -1.388600 4.683700
H 4.605000 -0.529800 5.706800
H 4.629600 -2.916100 6.313300
H 2.674800 -4.330000 5.879900
H 0.615700 -0.945100 4.235200
C 0.361400 -3.577500 4.636300
C 0.511900 -4.884700 4.163300
C -0.541700 -5.496300 3.510300
N -1.711300 -4.877000 3.312900
C -1.928800 -3.705100 3.932700
C -0.933500 -3.041200 4.616500
H 1.464100 -5.386200 4.224700
H -0.453700 -6.491100 3.085200
H -2.931600 -3.288800 3.859600
H -1.143100 -2.097500 5.094200
C -5.144800 1.552200 -1.358400
C -5.005400 2.574500 -0.725700
C -5.147100 3.750900 0.042700
C -6.442100 4.171900 0.294700
C -6.705900 5.290400 1.090300
C -5.677300 6.006900 1.646200
C -4.346200 5.626500 1.400800
C -3.252800 6.344600 1.930000
C -1.978900 5.976500 1.612400
N -1.704900 4.916700 0.805900
C -2.703300 4.188300 0.333300
C -4.055100 4.490100 0.587400
H -7.265200 3.616200 -0.128000
H -7.730000 5.581400 1.266800
H -5.872400 6.866900 2.267400
H -3.435800 7.193100 2.569800
H -1.131800 6.522100 2.015700
H -2.442200 3.333400 -0.283500
C -5.336400 0.284200 -1.955800
C -5.798100 0.138800 -3.265200
C -6.057100 -1.128500 -3.758700
C -5.856200 -2.254100 -2.976500
C -5.390200 -2.122300 -1.667800
C -5.132200 -0.846400 -1.168800
H -5.962500 1.009400 -3.881300
H -6.427200 -1.241300 -4.766600
H -6.093800 -3.228300 -3.373700
H -4.766600 -0.711500 -0.163000
C -5.079600 -3.269900 -0.810500
C -5.189900 -3.163500 0.585200
C -4.548500 -4.085800 1.385100
N -3.831500 -5.103300 0.871700
C -3.915100 -5.334800 -0.445200
C -4.536100 -4.456100 -1.313200
H -5.741600 -2.351800 1.032400
H -4.620900 -4.052100 2.469400
H -3.430300 -6.235500 -0.802000
H -4.510400 -4.644600 -2.374100
C 0.220100 1.693100 -5.040800
C -0.229200 2.808600 -5.162500
C -0.766100 4.102500 -5.311600
C -1.114600 4.584700 -6.558200
C -1.678100 5.857400 -6.705500
C -1.897100 6.663700 -5.616300
C -1.544200 6.218300 -4.329700
C -1.720700 7.007500 -3.170700
C -1.319400 6.532500 -1.957100
N -0.760400 5.302300 -1.811500
C -0.601300 4.525900 -2.866100
C -0.970300 4.924700 -4.161600
H -0.955000 3.968300 -7.429700
H -1.943000 6.201600 -7.693600
H -2.333800 7.643000 -5.733600
H -2.160900 7.987800 -3.259200
H -1.435900 7.121700 -1.049100
H -0.156400 3.550100 -2.693700
C 0.673300 0.389700 -4.737800
C 1.869000 -0.121000 -5.245200
C 2.287300 -1.381100 -4.853900
C 1.542800 -2.130400 -3.959500
C 0.339600 -1.631800 -3.447500
C -0.093200 -0.372300 -3.858800
H 2.459300 0.467100 -5.930700
H 3.211500 -1.779300 -5.243600
H 1.918800 -3.087900 -3.638400
H -1.043500 0.022000 -3.536000
C -0.432300 -2.377400 -2.452100
C -0.387100 -3.772600 -2.363000
C -1.054400 -4.413300 -1.346600
N -1.782900 -3.740100 -0.447300
C -1.887400 -2.407700 -0.542600
C -1.223700 -1.701800 -1.511800
H 0.164500 -4.356900 -3.081200
H -1.038200 -5.489600 -1.219600
H -2.523500 -1.935000 0.198800
H -1.295600 -0.626600 -1.514300
