154

Pd 0.097500 4.090200 0.490700
Pd 0.360900 -5.556700 0.184900
C 6.131900 -2.844100 0.198400
C 5.945100 -4.031600 0.335100
C 5.877400 -5.431900 0.476500
C 7.055100 -6.145400 0.618000
C 7.048800 -7.538200 0.739800
C 5.870500 -8.241800 0.714300
C 4.649100 -7.559900 0.569600
C 3.405800 -8.230900 0.524800
C 2.251700 -7.518100 0.380000
N 2.253600 -6.162700 0.284900
C 3.391600 -5.500600 0.323400
C 4.636900 -6.138600 0.456300
H 7.994500 -5.614300 0.633400
H 7.987500 -8.059100 0.850200
H 5.867100 -9.316900 0.801000
H 3.383400 -9.306200 0.603200
H 1.278700 -8.013400 0.322500
H 3.346900 -4.418700 0.251700
C 6.285900 -1.455300 -0.006400
C 7.499300 -0.935300 -0.467100
C 7.615800 0.423600 -0.698600
C 6.542500 1.273600 -0.489000
C 5.324300 0.768500 -0.028700
C 5.212200 -0.598300 0.222100
H 8.335100 -1.594500 -0.644300
H 8.552300 0.824400 -1.055700
H 6.648000 2.322900 -0.715200
H 4.304800 -1.010000 0.632400
C 4.156900 1.634300 0.160900
C 2.867800 1.124800 -0.053200
C 1.769000 1.925200 0.154500
N 1.888900 3.212500 0.519500
C 3.103300 3.728100 0.705500
C 4.252400 2.972100 0.553400
H 2.734600 0.115400 -0.406400
H 0.752100 1.538800 0.030400
H 3.151100 4.770600 0.997100
H 5.211400 3.423000 0.750300
C 0.457400 1.350200 6.250700
C 0.314400 2.538500 6.075300
C 0.173700 3.938600 6.018100
C 0.090800 4.648700 7.203500
C -0.025400 6.041800 7.207400
C -0.054000 6.748200 6.030800
C 0.026500 6.068900 4.802300
C 0.006500 6.743900 3.560300
C 0.073700 6.032700 2.398400
N 0.158500 4.675600 2.391400
C 0.196800 4.010400 3.527400
C 0.135600 4.647400 4.779700
H 0.117200 4.114400 8.140900
H -0.088800 6.560400 8.151700
H -0.137700 7.823600 6.034200
H -0.064700 7.819800 3.545200
H 0.054000 6.530400 1.424300
H 0.282900 2.930200 3.472700
C 0.693800 -0.033400 6.400200
C 1.168300 -0.538900 7.614600
C 1.453100 -1.887400 7.727300
C 1.286800 -2.738500 6.647700
C 0.807800 -2.249200 5.429300
C 0.497800 -0.893800 5.322900
H 1.316300 0.124600 8.452700
H 1.821700 -2.278200 8.663600
H 1.562300 -3.776100 6.749900
H 0.072400 -0.492900 4.417000
C 0.677300 -3.121700 4.259300
C 0.418700 -4.492000 4.355200
C 0.340300 -5.260100 3.207600
N 0.482800 -4.732300 1.993600
C 0.714400 -3.415100 1.871700
C 0.830900 -2.594200 2.968500
H 0.265900 -4.961000 5.313400
H 0.160500 -6.327000 3.260000
H 0.802700 -3.024700 0.851400
H 1.059100 -1.550100 2.833400
C -4.673200 -1.902200 -2.234400
C -4.582600 -3.061600 -1.899200
C -4.766100 -4.412400 -1.544800
C -5.959600 -5.006000 -1.925500
C -6.275900 -6.314200 -1.552700
C -5.405500 -7.052100 -0.789900
C -4.172300 -6.500200 -0.403300
C -3.233500 -7.229200 0.360900
C -2.019200 -6.680900 0.644700
N -1.669400 -5.433800 0.217000
C -2.544300 -4.699900 -0.441100
C -3.824000 -5.170800 -0.787900
H -6.664100 -4.435000 -2.510200
H -7.219200 -6.736900 -1.862400
H -5.651100 -8.057000 -0.485100
H -3.484300 -8.222400 0.698300
H -1.280000 -7.220700 1.245600
H -2.231400 -3.703900 -0.730000
C -4.850900 -0.527300 -2.498100
C -5.796900 -0.109500 -3.439300
C -6.049800 1.239900 -3.600800
C -5.389000 2.182100 -2.830500
C -4.436000 1.780900 -1.892500
C -4.159300 0.421100 -1.750600
H -6.331700 -0.840800 -4.025100
H -6.785400 1.562500 -4.321800
H -5.643900 3.224200 -2.938500
H -3.408300 0.079000 -1.057200
C -3.707900 2.741100 -1.059500
C -3.425300 4.047700 -1.468800
C -2.538500 4.816800 -0.736800
N -1.937100 4.363500 0.364600
C -2.325100 3.170900 0.860000
C -3.206500 2.350600 0.191700
H -3.841800 4.445700 -2.379400
H -2.270000 5.816100 -1.052700
H -1.947600 2.899700 1.847100
H -3.499200 1.412200 0.634000
C -2.260800 0.529100 -4.620800
C -1.944500 1.693400 -4.524600
C -1.595000 3.048700 -4.683600
C -1.957800 3.663600 -5.871500
C -1.580000 4.977700 -6.157300
C -0.826600 5.699000 -5.264700
C -0.456700 5.125400 -4.036300
C 0.304800 5.830700 -3.077100
C 0.573700 5.258200 -1.870600
N 0.125000 4.011900 -1.547000
C -0.530700 3.299500 -2.441500
C -0.853500 3.792200 -3.717400
H -2.531400 3.106000 -6.595700
H -1.876600 5.418100 -7.096700
H -0.515900 6.706900 -5.490000
H 0.655300 6.824200 -3.307700
H 1.181100 5.769100 -1.116700
H -0.838400 2.303100 -2.148400
C -2.521100 -0.845300 -4.809200
C -3.444200 -1.253300 -5.777500
C -3.612000 -2.600500 -6.037500
C -2.866600 -3.550800 -5.360000
C -1.946600 -3.160000 -4.385500
C -1.796100 -1.801800 -4.104300
H -4.011900 -0.515600 -6.322900
H -4.318800 -2.915000 -6.790100
H -2.979200 -4.591600 -5.618300
H -1.115800 -1.469200 -3.337100
C -1.143000 -4.132700 -3.640700
C 0.108500 -3.767000 -3.121600
C 0.749000 -4.601100 -2.232200
N 0.224000 -5.782600 -1.848800
C -0.878300 -6.213800 -2.464800
C -1.581600 -5.430700 -3.362800
H 0.572300 -2.837300 -3.409500
H 1.739500 -4.353600 -1.846100
H -1.219300 -7.206100 -2.200300
H -2.494000 -5.811000 -3.791800
