178

Pd 0.104100 5.162200 -0.260600
Pd -0.156200 -6.150600 0.342200
C 6.532700 -2.448500 0.312200
C 6.280500 -3.605900 0.556400
C 5.883800 -4.934600 0.805400
C 6.793900 -5.922300 1.135300
C 6.374000 -7.237700 1.368100
C 5.051300 -7.587700 1.272000
C 4.091700 -6.610400 0.933100
C 2.718400 -6.904700 0.810600
N 1.825500 -5.995800 0.490900
C 2.210900 -4.710000 0.265900
C 3.515700 -4.322300 0.358400
C 4.504100 -5.268900 0.698300
H 7.841600 -5.674800 1.215700
H 7.112000 -7.982000 1.625400
H 4.736800 -8.603600 1.451000
H 2.361700 -7.914200 0.985500
H 1.416000 -4.006900 0.000600
H 3.811200 -3.302300 0.171800
C 6.799600 -1.106500 -0.030500
C 8.033100 -0.770500 -0.639000
C 8.270300 0.510600 -1.043600
C 7.300600 1.520900 -0.861900
C 7.503300 2.844000 -1.304400
C 6.548800 3.801300 -1.116500
C 5.332300 3.494000 -0.462000
C 5.109900 2.206800 -0.026500
C 6.074200 1.196300 -0.221000
C 5.846600 -0.132300 0.185400
H 8.773800 -1.542300 -0.786100
H 9.206700 0.768600 -1.516800
H 8.429700 3.088300 -1.803100
H 6.714900 4.798500 -1.493400
H 4.206000 1.952400 0.505100
H 4.915500 -0.385200 0.669200
C 4.341100 4.560200 -0.263300
C 4.739400 5.876800 -0.010400
C 3.786900 6.873400 0.120900
C 2.448000 6.539400 0.016100
N 2.065100 5.275900 -0.190400
C 2.969200 4.311800 -0.334000
H 5.786300 6.114700 0.093500
H 4.081500 7.894100 0.304200
H 1.664000 7.295600 0.102400
H 2.583600 3.318000 -0.533600
C 0.190000 1.689800 6.513200
C 0.058500 2.857500 6.227300
C -0.072400 4.193400 5.800200
C -0.215100 5.236300 6.697500
C -0.334600 6.557800 6.250900
C -0.309100 6.858800 4.912900
C -0.160200 5.823900 3.965800
C -0.114900 6.065100 2.578000
N 0.029900 5.100800 1.699300
C 0.136600 3.809200 2.105500
C 0.106000 3.469700 3.427700
C -0.043000 4.475300 4.405200
H -0.235900 5.027300 7.756400
H -0.446600 7.345900 6.979700
H -0.399500 7.879400 4.576800
H -0.202600 7.077200 2.197600
H 0.253700 3.055800 1.320000
H 0.198400 2.443500 3.745600
C 0.390600 0.327800 6.818400
C 0.987600 -0.035200 8.050000
C 1.243800 -1.346300 8.326300
C 0.917900 -2.361000 7.399900
C 1.198900 -3.720500 7.646000
C 0.869700 -4.681500 6.734500
C 0.230600 -4.339400 5.519200
C -0.046300 -3.017400 5.253300
C 0.292100 -2.004600 6.174500
C 0.040200 -0.646000 5.905800
H 1.243000 0.738800 8.758300
H 1.706300 -1.626400 9.261800
H 1.685400 -3.990700 8.571700
H 1.121400 -5.711800 6.932900
H -0.562100 -2.733000 4.349200
H -0.433300 -0.370100 4.976100
C -0.124200 -5.408900 4.576200
C -0.549600 -6.659600 5.034900
C -0.828600 -7.667300 4.127300
C -0.691200 -7.408700 2.775300
N -0.314700 -6.203800 2.331000
C -0.034500 -5.230800 3.194700
H -0.671200 -6.835500 6.092100
H -1.148600 -8.639600 4.465400
H -0.888200 -8.175500 2.024300
H 0.293300 -4.288500 2.768900
C -6.668100 -2.162500 -0.034500
C -6.470000 -3.349800 -0.152700
C -6.135600 -4.714300 -0.257600
C -7.091300 -5.688800 -0.480600
C -6.733200 -7.039400 -0.570700
C -5.427500 -7.437600 -0.436400
C -4.422800 -6.474900 -0.203200
C -3.064000 -6.817200 -0.048400
N -2.129200 -5.921400 0.173300
C -2.454200 -4.602500 0.258700
C -3.740200 -4.167400 0.123700
C -4.772300 -5.098300 -0.113900
H -8.126900 -5.403300 -0.588000
H -7.505600 -7.772200 -0.747400
H -5.160700 -8.480200 -0.505200
H -2.754700 -7.855000 -0.113700
H -1.626800 -3.912400 0.448100
H -3.987900 -3.120700 0.199600
C -6.872500 -0.780800 0.162000
C -8.088100 -0.325500 0.727700
C -8.265400 1.001000 0.992400
C -7.250700 1.940600 0.706700
C -7.391600 3.311300 1.004900
C -6.394600 4.198300 0.718600
C -5.194800 3.767500 0.104000
C -5.032700 2.432300 -0.191000
C -6.041900 1.493600 0.107500
C -5.876300 0.120100 -0.154000
H -8.863000 -1.042400 0.954300
H -9.188000 1.350800 1.432600
H -8.304800 3.649700 1.472000
H -6.514000 5.236600 0.986400
H -4.142500 2.081400 -0.689800
H -4.958800 -0.225400 -0.605300
C -4.156100 4.759700 -0.204600
C -4.494000 6.058800 -0.597200
C -3.496900 6.990900 -0.831500
C -2.174600 6.608700 -0.688200
N -1.849700 5.358100 -0.347400
C -2.796900 4.457400 -0.104300
H -5.529100 6.332200 -0.728700
H -3.744700 7.998700 -1.123300
H -1.356800 7.314600 -0.852500
H -2.457000 3.473800 0.200900
C -0.151700 0.996200 -6.627200
C 0.033500 2.180500 -6.466400
C 0.226000 3.546800 -6.183400
C 0.415300 4.480700 -7.186000
C 0.595700 5.835300 -6.882100
C 0.585600 6.277900 -5.583900
C 0.390600 5.357600 -4.532600
C 0.358400 5.747100 -3.178500
N 0.170800 4.889400 -2.202700
C 0.004300 3.568100 -2.469500
C 0.017500 3.088800 -3.748000
C 0.211200 3.976700 -4.826300
H 0.425400 4.159300 -8.216500
H 0.742800 6.535400 -7.690300
H 0.723100 7.323400 -5.358000
H 0.492900 6.788800 -2.907600
H -0.146400 2.908900 -1.608700
H -0.122400 2.039900 -3.955100
C -0.415000 -0.379900 -6.786900
C -1.029700 -0.843800 -7.975100
C -1.346600 -2.163600 -8.111700
C -1.066600 -3.088100 -7.081600
C -1.410500 -4.451600 -7.183000
C -1.124900 -5.324600 -6.173500
C -0.468800 -4.885200 -4.999200
C -0.130700 -3.556600 -4.874200
C -0.423300 -2.632800 -5.898800
C -0.108600 -1.266400 -5.774900
H -1.250100 -0.138400 -8.762400
H -1.822800 -2.519800 -9.013800
H -1.910400 -4.795800 -8.076500
H -1.424300 -6.357300 -6.262300
H 0.399100 -3.201900 -4.003700
H 0.378400 -0.915400 -4.878000
C -0.162500 -5.863600 -3.946700
C 0.203800 -7.174400 -4.268400
C 0.437300 -8.091600 -3.257800
C 0.314500 -7.684500 -1.941500
N -0.005100 -6.423100 -1.629100
C -0.241500 -5.535700 -2.592300
H 0.315300 -7.467200 -5.300500
H 0.711400 -9.108100 -3.489500
H 0.477200 -8.375300 -1.112500
H -0.524800 -4.539200 -2.270200
