186

Pd 1.534900 6.525500 -0.627400
Pd -0.000100 -7.340000 0.226200
C 5.772700 -2.018700 -0.486500
C 5.636800 -3.216400 -0.381400
C 5.531000 -4.615400 -0.265300
C 6.674100 -5.397600 -0.269800
C 6.599200 -6.790100 -0.159100
C 5.388300 -7.422900 -0.044000
C 4.199800 -6.662500 -0.035300
C 2.928400 -7.257700 0.077900
N 1.814900 -6.559100 0.087300
C 1.859900 -5.205200 -0.012500
C 3.043000 -4.530600 -0.128100
C 4.259600 -5.243900 -0.144900
H 7.639000 -4.922100 -0.360700
H 7.512300 -7.365100 -0.166100
H 5.333300 -8.496500 0.040100
H 2.844200 -8.338000 0.162200
H 0.894100 -4.697800 0.005400
H 3.066400 -3.455500 -0.208000
C 5.943100 -0.626300 -0.610000
C 4.838500 0.233200 -0.603700
C 5.020700 1.592300 -0.725300
C 6.308300 2.126200 -0.856500
C 7.412800 1.266000 -0.863900
C 7.231700 -0.093900 -0.741700
H 3.846800 -0.178300 -0.503100
H 4.171300 2.256800 -0.722400
H 8.406600 1.675700 -0.965400
H 8.084100 -0.756900 -0.747300
C 6.491200 3.517000 -0.978200
C 6.638700 4.714200 -1.079600
C 6.798300 6.107300 -1.193600
C 8.049300 6.668900 -1.371400
C 8.204900 8.054900 -1.482600
C 7.124700 8.900400 -1.417900
C 5.831500 8.376400 -1.237300
C 4.673300 9.184200 -1.159600
C 3.447800 8.605800 -0.982600
N 3.306000 7.264900 -0.879100
C 4.357700 6.476700 -0.945800
C 5.659300 6.966400 -1.124300
H 8.916800 6.029000 -1.425100
H 9.196200 8.459100 -1.621100
H 7.254500 9.967800 -1.503900
H 4.770700 10.255000 -1.241100
H 2.532200 9.191600 -0.917100
H 4.194800 5.402400 -0.856800
C -0.561000 2.344000 4.851500
C -0.505700 3.551300 4.794400
C -0.467500 4.944500 4.598900
C -1.232000 5.811100 5.360200
C -1.254900 7.182800 5.082300
C -0.553300 7.702700 4.024300
C 0.242300 6.852800 3.227200
C 0.904600 7.295000 2.064300
N 1.644400 6.496900 1.326700
C 1.848700 5.209100 1.702700
C 1.207600 4.668000 2.780200
C 0.331500 5.467800 3.543400
H -1.826900 5.421000 6.171900
H -1.856100 7.830700 5.701400
H -0.604200 8.754300 3.791400
H 0.808600 8.324900 1.732800
H 2.566000 4.642800 1.107300
H 1.346200 3.634300 3.053900
C -0.612600 0.937800 4.895400
C -1.202900 0.277600 5.978600
C -1.230500 -1.098800 6.016100
C -0.674300 -1.845100 4.969200
C -0.100600 -1.184800 3.877100
C -0.067700 0.191200 3.843200
H -1.626100 0.852800 6.788700
H -1.676100 -1.610200 6.856200
H 0.331500 -1.761900 3.075000
H 0.382400 0.705400 3.008600
C -0.653100 -3.249200 5.063800
C -0.595100 -4.451900 5.188500
C -0.455300 -5.816500 5.498300
C -0.543100 -6.207600 6.824700
C -0.325400 -7.533900 7.204900
C 0.001600 -8.487700 6.272600
C 0.085800 -8.139300 4.913700
C 0.428000 -9.073300 3.909500
C 0.457200 -8.683400 2.604200
N 0.138400 -7.418700 2.217400
C -0.150600 -6.511400 3.127400
C -0.170900 -6.798400 4.503300
H -0.769000 -5.468100 7.577500
H -0.400600 -7.800500 8.248000
H 0.195400 -9.506600 6.568700
H 0.661500 -10.088400 4.188400
H 0.740300 -9.378200 1.810300
H -0.388300 -5.513000 2.775000
C -4.454800 1.615300 0.342000
C -4.331400 2.817800 0.288500
C -4.138000 4.209700 0.213400
C -5.197000 5.094000 0.324900
C -4.993800 6.476600 0.243500
C -3.740300 6.998000 0.049800
C -2.632800 6.130700 -0.067800
C -1.322800 6.599100 -0.264600
N -0.289700 5.788500 -0.368500
C -0.461300 4.446400 -0.290200
C -1.693000 3.891700 -0.103800
C -2.824100 4.721700 0.014900
H -6.194400 4.709800 0.476300
H -5.843900 7.135000 0.335100
H -3.589600 8.063700 -0.013500
H -1.116500 7.664200 -0.338700
H 0.439100 3.848900 -0.385500
H -1.817200 2.822800 -0.043800
C -4.576400 0.213900 0.396700
C -5.826600 -0.385500 0.588400
C -5.935600 -1.757700 0.634800
C -4.797400 -2.561500 0.492000
C -3.547200 -1.961500 0.303000
C -3.438800 -0.590300 0.254900
H -6.704500 0.233500 0.698300
H -6.899700 -2.221600 0.781200
H -2.673100 -2.582800 0.193100
H -2.477900 -0.124400 0.107000
C -4.927500 -3.962100 0.535800
C -5.051000 -5.165700 0.570200
C -5.287900 -6.551000 0.615600
C -6.586400 -7.016400 0.732500
C -6.862100 -8.386100 0.778700
C -5.851300 -9.312600 0.710100
C -4.515900 -8.887200 0.592200
C -3.430300 -9.788000 0.519200
C -2.156900 -9.310800 0.408500
N -1.885500 -7.984900 0.363700
C -2.873100 -7.110900 0.427100
C -4.217800 -7.493800 0.543000
H -7.398500 -6.307600 0.788000
H -7.887200 -8.711600 0.869500
H -6.066300 -10.369000 0.745900
H -3.618600 -10.849100 0.552700
H -1.304300 -9.980000 0.350900
H -2.605700 -6.055700 0.386800
C -1.564100 1.821700 -5.169800
C -1.544400 3.030200 -5.225500
C -1.514300 4.435600 -5.156400
C -2.444800 5.222400 -5.811900
C -2.454500 6.612300 -5.646400
C -1.568300 7.231400 -4.801900
C -0.598800 6.464900 -4.121000
C 0.278300 7.016700 -3.165700
N 1.180900 6.296400 -2.537400
C 1.339500 4.982500 -2.836300
C 0.504800 4.340400 -3.705700
C -0.533700 5.059100 -4.333800
H -3.179900 4.755700 -6.449700
H -3.190200 7.195900 -6.178200
H -1.604100 8.298300 -4.649800
H 0.222200 8.070800 -2.909600
H 2.181000 4.479000 -2.358400
H 0.615200 3.288300 -3.914600
C -1.559500 0.416900 -5.077200
C -2.259800 -0.366800 -6.000600
C -2.222100 -1.740600 -5.908300
C -1.489900 -2.360100 -4.887500
C -0.807600 -1.575800 -3.950800
C -0.839500 -0.203000 -4.048100
H -2.818500 0.110500 -6.791800
H -2.751900 -2.347600 -6.627200
H -0.240800 -2.055800 -3.169000
H -0.306500 0.407000 -3.335900
C -1.405400 -3.764800 -4.857200
C -1.294600 -4.970100 -4.877400
C -1.116800 -6.351000 -5.075700
C -1.331600 -6.872000 -6.341500
C -1.088000 -8.218600 -6.621700
C -0.610000 -9.063300 -5.650200
C -0.393300 -8.581800 -4.347900
C 0.104900 -9.399800 -3.308300
C 0.259100 -8.884400 -2.056400
N -0.076400 -7.601300 -1.753300
C -0.510800 -6.799000 -2.703200
C -0.671200 -7.219000 -4.035000
H -1.679200 -6.219000 -7.127300
H -1.264900 -8.587700 -7.620300
H -0.397800 -10.097300 -5.872200
H 0.356500 -10.427200 -3.518100
H 0.663400 -9.487400 -1.240000
H -0.757900 -5.781300 -2.419000
