148
 
N 4.07 -2.71 -1.20
N -4.33 1.45 2.10
C 2.89 -2.57 -1.82
C -3.05 1.75 2.37
H 2.44 -1.59 -1.81
H -2.37 1.79 1.53
C 2.25 -3.65 -2.46
C -2.59 2.05 3.66
C 2.91 -4.90 -2.46
C -3.53 1.99 4.71
C 4.13 -5.02 -1.82
C -4.85 1.66 4.42
C 4.69 -3.92 -1.18
C -5.23 1.40 3.11
H 5.63 -3.97 -0.65
H -6.24 1.14 2.85
C 0.97 -3.48 -3.04
C -1.23 2.42 3.83
C -0.14 -3.36 -3.51
C -0.07 2.77 3.83
C -1.47 -3.23 -4.02
C 1.27 3.27 3.79
C -2.28 -2.15 -3.61
C 2.32 2.48 3.28
H -1.87 -1.42 -2.93
H 2.10 1.46 2.99
C -3.58 -2.02 -4.10
C 3.61 3.00 3.15
C -4.07 -2.96 -5.01
C 3.85 4.33 3.57
H -5.09 -2.88 -5.38
H 4.83 4.77 3.45
C -3.27 -4.03 -5.43
C 2.82 5.10 4.10
H -3.66 -4.76 -6.13
H 3.02 6.12 4.42
C -1.97 -4.17 -4.94
C 1.53 4.59 4.22
H -1.35 -5.00 -5.26
H 0.73 5.19 4.62
C -4.43 -0.89 -3.65
C 4.72 2.19 2.59
C -4.42 -0.47 -2.32
C 4.48 1.18 1.66
H -3.81 -0.98 -1.59
H 3.47 0.95 1.33
N -5.17 0.56 -1.86
N 5.46 0.44 1.09
C -6.00 1.23 -2.70
C 6.76 0.68 1.39
C -6.82 2.38 -2.19
C 7.83 -0.09 0.68
C -6.07 0.84 -4.04
C 7.07 1.67 2.33
H -6.74 1.38 -4.71
H 8.11 1.84 2.58
C -5.29 -0.21 -4.52
C 6.06 2.41 2.94
H -5.34 -0.48 -5.57
H 6.33 3.15 3.69
N 4.28 -2.16 1.61
N -4.06 2.86 -0.37
C 2.99 -2.46 1.79
C -2.86 2.92 -0.99
H 2.29 -2.14 1.02
C 2.53 -3.16 2.92
C -2.20 4.14 -1.22
C 3.48 -3.55 3.88
C -2.85 5.32 -0.83
C 4.82 -3.23 3.68
C -4.09 5.25 -0.20
C 5.19 -2.53 2.54
C -4.67 4.00 0.03
H 6.22 -2.26 2.35
H -5.62 3.89 0.53
C 1.15 -3.44 3.06
C -0.91 4.15 -1.80
C -0.04 -3.68 3.18
C 0.22 4.19 -2.25
C -1.43 -3.95 3.36
C 1.56 4.24 -2.74
C -2.38 -3.34 2.53
C 2.37 3.09 -2.69
H -2.04 -2.70 1.72
H 1.95 2.17 -2.30
C -3.75 -3.56 2.74
C 3.69 3.13 -3.14
C -4.15 -4.42 3.78
C 4.20 4.33 -3.67
H -5.21 -4.58 3.97
H 5.23 4.39 -4.00
C -3.20 -5.04 4.59
C 3.39 5.47 -3.73
H -3.53 -5.70 5.39
H 3.80 6.39 -4.13
C -1.84 -4.81 4.39
C 2.08 5.43 -3.27
H -1.10 -5.28 5.03
H 1.45 6.32 -3.31
C -4.78 -2.87 1.92
C 4.55 1.93 -3.06
C -4.55 -1.58 1.43
C 4.48 1.08 -1.96
H -3.61 -1.08 1.62
H 3.81 1.31 -1.13
N -5.48 -0.87 0.75
N 5.22 -0.04 -1.83
C -6.71 -1.39 0.52
C 6.11 -0.39 -2.79
C -7.75 -0.57 -0.17
C 6.90 -1.66 -2.67
C -6.98 -2.69 0.95
C 6.25 0.44 -3.91
H -7.96 -3.12 0.75
H 6.96 0.16 -4.68
C -6.03 -3.44 1.64
C 5.48 1.58 -4.05
H -6.26 -4.45 1.95
H 5.58 2.20 -4.94
Pd 4.82 -1.13 -0.10
Pd -4.84 1.02 0.14
H -5.59 1.61 5.21
H -3.21 2.21 5.72
H 2.45 -5.75 -2.95
H 4.66 -5.97 -1.79
H -2.38 6.28 -1.00
H -4.62 6.14 0.12
H -2.41 1.98 -1.28
H 5.58 -3.51 4.40
H 3.17 -4.09 4.76
H -7.29 2.14 -1.23
H -7.60 2.62 -2.90
H -6.20 3.26 -2.05
H -8.73 -1.04 -0.07
H -7.54 -0.48 -1.24
H -7.80 0.43 0.25
H 8.81 0.16 1.09
H 7.83 0.16 -0.39
H 7.69 -1.17 0.77
H 6.27 -2.52 -2.88
H 7.33 -1.78 -1.67
H 7.72 -1.66 -3.39
He -0.00 -0.00 0.01
Ne -0.02 0.02 -0.04
Ar 0.28 -0.43 3.78
Ar 0.98 3.64 0.72
Ar -0.29 -3.54 -0.05
Ar 0.44 -0.03 -2.73
