218

Fe 12.096000 15.166800 10.813000
Fe 7.127400 3.943700 12.700700
O 13.298800 10.594500 13.057100
O 11.035200 8.637500 15.474500
N 10.784300 15.964100 9.597200
N 12.051800 13.703100 9.539100
N 8.565000 3.518300 11.464600
N 7.725300 2.309000 13.588400
C 9.851800 17.003500 9.832400
C 8.490100 16.759400 9.598000
C 7.550500 17.761200 9.819000
C 7.957700 19.015500 10.271500
C 9.309800 19.256900 10.516300
C 10.253200 18.254600 10.314300
C 10.676400 15.290200 8.505500
C 11.384200 14.035000 8.416800
C 11.276500 13.156400 7.339400
C 11.810300 11.882500 7.458900
C 12.458700 11.511200 8.648000
C 12.580600 12.487400 9.648000
C 14.129200 12.007500 14.785800
C 14.519600 12.164800 16.101200
C 14.455300 11.108700 17.037400
C 14.842600 11.283700 18.390700
C 14.810700 10.225700 19.267800
C 14.395400 8.950600 18.822000
C 14.011400 8.749400 17.514700
C 14.022800 9.822100 16.590900
C 13.629700 9.655400 15.226600
C 13.657000 10.732100 14.356000
C 13.261200 8.313500 14.703900
C 14.241200 7.461000 14.111400
C 15.601100 7.840300 14.000600
C 16.528900 6.962600 13.488600
C 16.143500 5.678400 13.042900
C 14.827800 5.290500 13.117800
C 13.849400 6.162800 13.660300
C 12.509600 5.754600 13.843600
C 11.572700 6.553500 14.473000
C 11.964500 7.862200 14.889300
C 9.054700 4.247700 10.470100
C 10.004100 3.754500 9.563300
C 10.372900 2.408800 9.680300
C 9.871600 1.647800 10.728600
C 8.995400 2.249100 11.628000
C 8.553800 1.643600 12.863100
C 7.533800 1.891100 14.929200
C 8.661800 1.671700 15.732300
C 8.510000 1.260300 17.053000
C 7.235600 1.059300 17.580700
C 6.112500 1.284100 16.784000
C 6.255200 1.712400 15.468100
O 11.054400 9.197800 7.918100
O 11.205800 6.169000 10.282800
N 13.668000 15.814500 9.847000
N 13.434100 14.347900 11.961000
N 8.265400 4.914900 13.939200
N 5.728000 4.363400 14.006200
C 13.782300 16.267800 8.509200
C 13.033100 17.350900 8.036800
C 13.191100 17.781700 6.723400
C 14.070600 17.122500 5.863900
C 14.799200 16.027400 6.325200
C 14.660100 15.601000 7.642600
C 14.752800 15.623600 10.511900
C 14.658700 14.871500 11.741500
C 15.735600 14.604300 12.582500
C 15.555800 13.705900 13.626600
C 14.313700 13.082300 13.796500
C 13.267400 13.480800 12.951500
C 13.007500 10.162700 8.861900
C 14.254100 9.981800 9.432500
C 14.848900 8.707000 9.560600
C 16.174400 8.545800 10.040100
C 16.762700 7.304600 10.061100
C 16.039700 6.171600 9.625400
C 14.745300 6.290700 9.174300
C 14.120300 7.560300 9.117900
C 12.807300 7.736600 8.586000
C 12.274500 9.008400 8.449400
C 12.027600 6.576900 8.078900
C 12.099400 6.193400 6.703600
C 12.849200 6.927900 5.753600
C 12.888500 6.527600 4.436300
C 12.187100 5.379200 4.005300
C 11.460700 4.638900 4.907500
C 11.403700 5.022400 6.271800
C 10.707300 4.255400 7.231600
C 10.630200 4.629400 8.558800
C 11.283800 5.826600 8.974700
C 9.517900 5.331100 13.772800
C 10.214200 6.060600 14.748200
C 9.565900 6.283700 15.973600
C 8.268300 5.830600 16.153500
C 7.631300 5.177300 15.099100
C 6.220300 4.872700 15.081400
C 4.320800 4.382400 13.848400
C 3.617500 3.265200 13.384100
C 2.233200 3.319300 13.257100
C 1.539600 4.491200 13.559900
C 2.239800 5.615100 13.996200
C 3.622400 5.563600 14.141300
N 12.048600 16.588800 12.160700
N 10.554100 14.521000 11.796300
N 6.541700 5.556700 11.787800
N 5.956800 3.074400 11.393400
C 13.087500 17.467400 12.553600
C 13.719800 18.311700 11.633300
C 14.737900 19.159900 12.057200
C 15.158000 19.150600 13.387600
C 14.545800 18.293100 14.301000
C 13.512600 17.457500 13.890000
C 10.991500 16.535100 12.894500
C 10.084200 15.431900 12.672500
C 8.870400 15.252600 13.336100
C 8.155300 14.080400 13.124800
C 8.671900 13.106000 12.260000
C 9.868000 13.403900 11.594200
C 6.935800 6.807000 11.994100
C 6.328300 7.913800 11.385300
C 5.208800 7.672800 10.577300
C 4.791700 6.365700 10.362500
C 5.498100 5.324800 10.964800
C 5.257900 3.920700 10.720300
C 5.965000 1.726200 10.959100
C 6.191500 1.457300 9.601600
C 6.229600 0.143700 9.145900
C 6.033500 -0.911600 10.035800
C 5.810900 -0.645800 11.387400
C 5.792900 0.664400 11.854800
C 6.900600 9.253000 11.602700
C 6.090200 10.388500 11.740600
C 6.653700 11.639400 11.960800
C 8.044600 11.792300 12.039100
C 8.855200 10.655700 11.895800
C 8.293100 9.407300 11.680700
H 13.166800 9.647800 12.889000
H 11.468600 9.454000 15.771200
H 8.169000 15.769600 9.264400
H 6.492400 17.561000 9.636000
H 7.221500 19.805300 10.435700
H 9.635800 20.239200 10.865100
H 11.303700 18.457700 10.512700
H 10.010800 15.604300 7.692100
H 10.755000 13.467200 6.432300
H 11.715500 11.166900 6.642400
H 13.081800 12.245800 10.588200
H 14.889400 13.137600 16.436000
H 15.175400 12.269500 18.725600
H 15.115000 10.363500 20.307400
H 14.389100 8.113100 19.523300
H 13.708700 7.756800 17.175000
H 15.910000 8.824000 14.359200
H 17.580200 7.255300 13.440700
H 16.898000 4.991900 12.653600
H 14.524300 4.293700 12.788100
H 12.232000 4.742100 13.540000
H 8.696400 5.274700 10.385400
H 11.095000 1.981100 8.981000
H 10.177500 0.610000 10.873600
H 8.973800 0.684700 13.191000
H 9.658700 1.849700 15.321800
H 9.393700 1.093800 17.672800
H 7.115900 0.726100 18.613600
H 5.111800 1.119200 17.189300
H 5.369500 1.884300 14.858900
H 10.720500 8.337300 7.617300
H 11.829400 6.897900 10.430800
H 12.344000 17.874900 8.696900
H 12.625200 18.646400 6.370200
H 14.188200 17.464200 4.833400
H 15.482900 15.501500 5.655200
H 15.214700 14.730400 8.001400
H 15.730300 15.952100 10.137700
H 16.704800 15.070600 12.395400
H 16.390900 13.440000 14.278600
H 12.267100 13.065400 13.082800
H 14.837200 10.856300 9.731900
H 16.731000 9.428100 10.366200
H 17.794000 7.190600 10.400700
H 16.521400 5.191200 9.632000
H 14.200000 5.413500 8.820900
H 13.408200 7.807300 6.079900
H 13.476500 7.098500 3.714200
H 12.233300 5.078300 2.956700
H 10.926600 3.741700 4.584500
H 10.212800 3.336300 6.906100
H 9.984600 5.130700 12.805600
H 10.076900 6.822000 16.771500
H 7.734800 6.001800 17.090400
H 5.589300 5.148500 15.935200
H 4.143700 2.344400 13.140300
H 1.689600 2.433700 12.921200
H 0.453100 4.527500 13.455000
H 1.705300 6.539400 14.226800
H 4.174100 6.451200 14.460100
H 13.409400 18.323600 10.589700
H 15.205800 19.837900 11.340300
H 15.963600 19.813100 13.711900
H 14.873600 18.275700 15.342600
H 13.049700 16.766600 14.598600
H 10.801900 17.258000 13.697200
H 8.507600 16.018800 14.023700
H 7.220300 13.905000 13.661300
H 10.273200 12.702600 10.863900
H 7.771600 6.952600 12.680000
H 4.691600 8.499700 10.086100
H 3.939400 6.143600 9.717800
H 4.546800 3.605300 9.947200
H 6.371200 2.284400 8.910400
H 6.411600 -0.057200 8.087900
H 6.054200 -1.943000 9.677000
H 5.645100 -1.468300 12.086500
H 5.629000 0.855000 12.914400
H 5.002800 10.294700 11.696300
H 6.000300 12.509900 12.053500
H 9.941400 10.743300 11.977200
H 8.949300 8.543600 11.548200
