242

Zn 5.383700 5.522800 39.056000
O 4.320200 4.322500 34.313200
H 4.790300 3.646900 33.795400
N 4.674600 7.368300 39.936900
N 3.774900 6.143000 37.704000
C 5.211200 7.947500 41.100100
C 5.384700 7.133800 42.226700
H 5.093800 6.082900 42.186400
C 5.877300 7.682900 43.405500
H 5.988600 7.050700 44.288800
C 6.230500 9.031200 43.459200
H 6.624100 9.458200 44.384200
C 6.087400 9.835500 42.326700
H 6.380800 10.886900 42.362400
C 5.576200 9.301500 41.149700
H 5.491300 9.926800 40.257600
C 3.873600 8.016900 39.174100
H 3.529400 9.030500 39.424700
C 3.364500 7.398600 37.950200
C 2.511800 8.062700 37.067300
H 2.180300 9.080500 37.282200
C 2.119600 7.422500 35.896000
H 1.493300 7.952500 35.176100
C 2.557800 6.120600 35.630600
C 3.371600 5.521200 36.609400
H 3.719400 4.498800 36.473300
C 2.187500 5.390900 34.406800
C 0.952400 5.572900 33.814700
H 0.248100 6.284300 34.252200
C 0.528700 4.829200 32.688600
C -0.758400 5.007000 32.118700
H -1.425600 5.762300 32.542000
C -1.177500 4.218200 31.071200
H -2.179000 4.344800 30.654600
C -0.323600 3.215100 30.557400
H -0.679300 2.568100 29.751700
C 0.940700 3.032600 31.074200
H 1.591900 2.249100 30.680300
C 1.400100 3.836300 32.146500
C 2.697800 3.679000 32.718700
C 3.078900 4.449800 33.804300
O 7.247600 5.194500 34.351600
H 7.711100 5.896000 33.859400
N 4.163100 3.944000 39.915400
N 5.809400 3.794600 37.761200
C 3.422000 4.016200 41.111800
C 2.632700 5.147700 41.351800
H 2.584700 5.937200 40.602200
C 1.885600 5.233700 42.520800
H 1.254500 6.107300 42.697900
C 1.939100 4.208900 43.466600
H 1.360500 4.285500 44.389600
C 2.735900 3.087700 43.234500
H 2.788600 2.289900 43.978600
C 3.473300 2.984300 42.059600
H 4.120500 2.119700 41.894200
C 4.189800 2.854600 39.240400
H 3.586600 1.983400 39.534700
C 5.008100 2.750900 38.033200
C 4.941900 1.648700 37.180900
H 4.285700 0.808400 37.416500
C 5.692500 1.655200 36.010800
H 5.603600 0.819200 35.314000
C 6.527800 2.741600 35.719400
C 6.551900 3.783600 36.666400
H 7.198100 4.643800 36.505600
C 7.349000 2.790000 34.495700
C 7.819500 1.617200 33.926100
H 7.564900 0.658900 34.383600
C 8.687400 1.603800 32.813100
C 9.199300 0.390800 32.281300
H 8.884500 -0.557100 32.725500
C 10.105400 0.406400 31.246200
H 10.514100 -0.529600 30.859500
C 10.537000 1.639600 30.702700
H 11.283900 1.641200 29.904900
C 10.038200 2.832000 31.178100
H 10.378000 3.780500 30.757000
C 9.100500 2.845000 32.240900
C 8.573600 4.049500 32.779100
C 7.728300 4.016000 33.869000
O 7.064500 5.067000 30.788400
H 6.277100 5.581500 30.534200
N 5.409700 7.309200 24.843700
N 6.767600 6.749200 27.139600
C 4.813000 7.561100 23.591200
C 3.545400 7.029600 23.330400
H 3.036200 6.459200 24.106700
C 2.925900 7.282200 22.111700
H 1.924500 6.891600 21.919300
C 3.575900 8.040400 21.137500
H 3.091700 8.228400 20.177000
C 4.846900 8.556900 21.391600
H 5.362700 9.140400 20.626000
C 5.466900 8.324900 22.614700
H 6.479600 8.692700 22.794100
C 6.003800 8.262000 25.460700
H 6.003500 9.286700 25.062100
C 6.663500 8.026400 26.743200
C 7.125700 9.074800 27.541400
H 7.029700 10.108000 27.201200
C 7.675600 8.784800 28.784200
H 7.989900 9.602200 29.436900
C 7.802300 7.451500 29.197200
C 7.335500 6.471500 28.301200
H 7.423900 5.417200 28.560800
C 8.432800 7.066400 30.475000
C 9.446000 7.847900 31.004200
H 9.716400 8.784100 30.511200
C 10.211700 7.450200 32.120400
C 11.250400 8.265100 32.640300
H 11.436800 9.240500 32.183700
C 12.029300 7.823800 33.684800
H 12.839500 8.447700 34.068400
C 11.804600 6.542600 34.240700
H 12.450400 6.188300 35.047900
C 10.799300 5.730800 33.762400
H 10.640800 4.737400 34.187200
C 9.971500 6.166000 32.697100
C 8.896000 5.375700 32.191800
C 8.105300 5.842200 31.151000
O 4.323500 4.320200 30.592300
H 3.648200 4.790400 31.110500
N 7.369000 4.674200 24.967800
N 6.143400 3.774800 27.200700
C 7.948500 5.210800 23.804800
C 7.135100 5.384600 22.678000
H 6.084100 5.093900 22.718100
C 7.684600 5.877200 21.499300
H 7.052600 5.988600 20.615900
C 9.033000 6.229900 21.446000
H 9.460300 6.623400 20.521100
C 9.837100 6.086500 22.578600
H 10.888500 6.379400 22.543100
C 9.302700 5.575300 23.755500
H 9.927700 5.490000 24.647600
C 8.017200 3.872700 25.730500
H 9.030700 3.528200 25.479800
C 7.398800 3.363800 26.954400
C 8.062500 2.510700 27.837000
H 9.080200 2.178700 27.621900
C 7.422300 2.118600 29.008400
H 7.952100 1.491900 29.728100
C 6.120700 2.557400 29.273900
C 5.521600 3.371700 28.295300
H 4.499400 3.719900 28.431600
C 5.390800 2.187000 30.497700
C 5.572300 0.951600 31.089400
H 6.283200 0.247100 30.651500
C 4.828200 0.527700 32.215200
C 5.005100 -0.759900 32.784200
H 5.760100 -1.427300 32.360600
C 4.215800 -1.179100 33.831300
H 4.341700 -2.181000 34.247300
C 3.213000 -0.325100 34.345300
H 2.565600 -0.680800 35.150600
C 3.031300 0.939700 33.829200
H 2.248100 1.591000 34.223400
C 3.835700 1.399400 32.757500
C 3.679200 2.697500 32.186000
C 4.450300 3.078600 31.100600
Zn 5.523400 5.383300 25.848200
O 5.194500 7.247900 30.551800
H 5.895900 7.711600 31.043900
N 3.944700 4.162700 24.988300
N 3.795100 5.808700 27.142700
C 4.016600 3.421900 23.791600
C 5.148400 2.633400 23.550900
H 5.938400 2.585600 24.300000
C 5.234300 1.886500 22.381700
H 6.108200 1.256000 22.204100
C 4.209000 1.939600 21.436400
H 4.285400 1.361300 20.513200
C 3.087500 2.735800 21.669200
H 2.289400 2.788300 20.925500
C 2.984200 3.473000 22.844300
H 2.119500 4.119800 23.010200
C 2.855300 4.189100 25.663400
H 1.984200 3.585900 25.369100
C 2.751500 5.007300 26.870600
C 1.649400 4.940900 27.723000
H 0.809100 4.284800 27.487300
C 1.655600 5.691800 28.892900
H 0.819500 5.603200 29.589500
C 2.741700 6.527600 29.184100
C 3.783800 6.551600 28.237300
H 4.643700 7.198400 28.397800
C 2.790000 7.349000 30.407700
C 1.617100 7.819200 30.977400
H 0.658900 7.564300 30.520000
C 1.603600 8.687400 32.090100
C 0.390600 9.199000 32.622000
H -0.557300 8.883700 32.178100
C 0.406000 10.105400 33.656900
H -0.530100 10.513800 34.043700
C 1.639200 10.537500 34.200100
H 1.640700 11.284600 34.997700
C 2.831700 10.038900 33.724700
H 3.780100 10.379100 34.145600
C 2.844800 9.100900 32.662100
C 4.049400 8.574000 32.124100
C 4.016000 7.728600 31.034300
O 5.066800 7.064700 34.114500
H 5.581300 6.277400 34.369300
N 7.309600 5.410400 40.060000
N 6.749200 6.767600 37.763900
C 7.561500 4.814200 41.312800
C 7.029700 3.546900 41.574200
H 6.459000 3.037500 40.798300
C 7.282100 2.928100 42.793300
H 6.891000 1.926900 42.986300
C 8.040600 3.578400 43.767100
H 8.228300 3.094700 44.728000
C 8.557600 4.849000 43.512200
H 9.141100 5.365100 44.277600
C 8.325600 5.468400 42.288900
H 8.693800 6.480900 42.108800
C 8.262200 6.004500 39.442800
H 9.287000 6.004400 39.841300
C 8.026400 6.663900 38.160200
C 9.074600 7.126300 37.362000
H 10.107900 7.030600 37.702100
C 8.784500 7.676100 36.119100
H 9.601800 7.990600 35.466400
C 7.451200 7.802400 35.706200
C 6.471300 7.335400 36.602100
H 5.417000 7.423400 36.342600
C 7.066000 8.433100 34.428400
C 7.847500 9.446600 33.899500
H 8.783500 9.716900 34.392700
C 7.449800 10.212400 32.783400
C 8.264700 11.251100 32.263800
H 9.240000 11.437600 32.720500
C 7.823600 12.030100 31.219200
H 8.447400 12.840400 30.835800
C 6.542500 11.805300 30.663100
H 6.188200 12.451200 29.855900
C 5.730700 10.800000 31.141200
H 4.737400 10.641400 30.716100
C 6.165800 9.972100 32.206500
C 5.375500 8.896400 32.711500
C 5.841900 8.105600 33.752300
