260

Zn 9.045800 19.092100 40.089600
Zn 10.331300 18.082000 26.712900
O 7.089700 19.353800 34.839800
O 5.900500 20.254200 31.459800
O 9.736500 16.318500 35.566300
O 10.266800 13.787500 32.172600
O 11.029100 20.563700 35.342700
O 13.174600 21.711500 31.921600
N 9.433000 21.090700 40.901500
N 8.018200 20.429300 38.666900
N 8.439400 18.639900 27.677500
N 9.597600 19.698700 25.443600
N 7.251000 18.664900 41.196700
N 8.368500 17.241400 39.187900
N 10.689100 16.412500 28.052800
N 9.632200 16.402100 25.569700
N 10.403900 17.977300 41.434400
N 11.002300 19.391600 39.188500
N 11.314800 19.633900 27.929000
N 12.364200 18.158600 25.907700
C 10.320700 21.390700 41.953700
C 11.469600 22.157200 41.718700
H 11.693300 22.503600 40.706200
C 12.332000 22.448100 42.772100
H 13.230800 23.041100 42.589300
C 12.045200 21.992000 44.058400
H 12.715000 22.234300 44.886200
C 10.898800 21.229000 44.286300
H 10.665000 20.882800 45.295900
C 10.043000 20.908700 43.237000
H 9.139900 20.321400 43.411900
C 8.991700 22.030100 40.156300
H 9.218900 23.086200 40.365100
C 8.113400 21.722800 39.027900
C 7.367000 22.716200 38.398800
H 7.469600 23.758500 38.708500
C 6.473900 22.348900 37.397300
H 5.860700 23.103600 36.899800
C 6.366200 21.007900 37.019000
C 7.192800 20.084600 37.689500
H 7.153500 19.024800 37.427100
C 5.385900 20.562100 36.012800
C 4.060400 20.934500 36.120100
H 3.741600 21.581000 36.942300
C 3.079400 20.442800 35.228200
C 1.710900 20.790500 35.367400
H 1.416100 21.468500 36.172100
C 0.768000 20.279500 34.507700
H -0.283800 20.550400 34.620800
C 1.157100 19.392500 33.479100
H 0.398500 18.978600 32.811100
C 2.478700 19.041900 33.314500
H 2.765900 18.350800 32.519100
C 3.475800 19.560400 34.177500
C 4.860900 19.244800 34.019600
C 5.780100 19.711500 34.938300
C 7.919500 20.263100 34.132900
H 7.541700 20.428400 33.114600
H 8.920400 19.821400 34.090600
H 7.987700 21.227500 34.658000
C 5.314400 18.386600 32.892100
C 5.276200 16.966700 33.056000
C 4.805300 16.364600 34.250700
H 4.463000 17.003400 35.066500
C 4.756600 14.994600 34.377400
H 4.372600 14.548800 35.297900
C 5.168100 14.154800 33.318000
H 5.094600 13.070200 33.423500
C 5.635300 14.709000 32.150100
H 5.939100 14.070400 31.316800
C 5.714100 16.117300 31.996500
C 6.203400 16.707600 30.810200
H 6.514300 16.052300 29.992200
C 6.233800 18.077000 30.640800
C 5.769800 18.926300 31.699200
C 4.859400 21.168900 31.758000
H 3.870200 20.701200 31.649200
H 4.949400 21.992600 31.035800
H 4.954400 21.576500 32.774600
C 7.899100 18.140700 28.781200
H 8.423900 17.300900 29.245500
C 6.740000 18.659900 29.384900
C 6.120200 19.733000 28.729000
H 5.192400 20.151800 29.116500
C 6.683100 20.253900 27.571500
H 6.213900 21.089700 27.047800
C 7.863100 19.695100 27.080100
C 8.543100 20.250800 25.909800
H 8.116100 21.152900 25.446700
C 10.285900 20.323700 24.379300
C 10.672500 21.666800 24.485900
H 10.466700 22.220000 25.405900
C 11.340100 22.280500 23.429300
H 11.647500 23.325000 23.515000
C 11.605900 21.566600 22.261200
H 12.114300 22.054000 21.426500
C 11.218000 20.230200 22.160600
H 11.414800 19.670800 21.243300
C 10.579300 19.596100 23.221900
H 10.273900 18.553100 23.141500
C 6.828400 19.372900 42.341100
C 6.821300 18.746500 43.593300
H 7.139800 17.705200 43.682000
C 6.462200 19.477100 44.724200
H 6.464400 18.991400 45.702400
C 6.102800 20.818900 44.610200
H 5.817200 21.386100 45.498400
C 6.104100 21.435800 43.357700
H 5.806900 22.482700 43.266800
C 6.478000 20.722400 42.224500
H 6.467400 21.193400 41.240500
C 6.709700 17.551300 40.881200
H 5.843900 17.153100 41.431000
C 7.270400 16.749200 39.792500
C 6.761300 15.496300 39.460900
H 5.864100 15.118900 39.956300
C 7.428200 14.731100 38.508700
H 7.045800 13.744800 38.236400
C 8.589600 15.222000 37.901200
C 9.003200 16.517900 38.279500
H 9.898600 16.958800 37.837300
C 9.389700 14.410300 36.969700
C 9.606400 13.065600 37.209700
H 9.168000 12.590500 38.091300
C 10.440800 12.286800 36.376800
C 10.680500 10.914900 36.647700
H 10.190300 10.450500 37.506800
C 11.522200 10.181200 35.846600
H 11.704400 9.126200 36.061600
C 12.164100 10.793800 34.747200
H 12.840100 10.203800 34.124100
C 11.953400 12.123500 34.459000
H 12.461900 12.588400 33.613100
C 11.084800 12.903900 35.258900
C 10.831600 14.284100 34.991900
C 10.000400 15.005200 35.826000
C 8.551300 16.549500 34.820600
H 8.739300 16.436700 33.741000
H 8.209800 17.571500 35.017300
H 7.750800 15.849700 35.112400
C 11.500400 14.982400 33.865100
C 12.591200 15.860900 34.159000
C 13.069800 16.049800 35.481500
H 12.570500 15.535900 36.303700
C 14.173500 16.833500 35.729100
H 14.541400 16.940600 36.752300
C 14.856400 17.475800 34.671500
H 15.746100 18.074000 34.879600
C 14.415500 17.315500 33.379800
H 14.955100 17.778500 32.550100
C 13.279800 16.514000 33.093300
C 12.830000 16.315500 31.769200
H 13.355800 16.824600 30.956800
C 11.792400 15.452000 31.479500
C 11.152400 14.740200 32.546100
C 8.917200 13.824700 32.583300
H 8.433300 14.759700 32.258900
H 8.804300 13.716000 33.671400
H 8.424200 12.976000 32.093100
C 11.142300 16.447800 29.297300
H 11.362400 17.437200 29.709500
C 11.318000 15.301200 30.092400
C 11.006700 14.068800 29.500100
H 11.133300 13.145700 30.065000
C 10.543100 14.033300 28.189000
H 10.303700 13.083000 27.706800
C 10.382400 15.230000 27.493000
C 9.862300 15.274400 26.123700
H 9.661900 14.324200 25.607000
C 9.184900 16.470400 24.233600
C 9.902100 15.843400 23.208100
H 10.821100 15.300500 23.438700
C 9.467800 15.971300 21.890700
H 10.034500 15.493800 21.088500
C 8.317700 16.702500 21.597100
H 7.976800 16.793700 20.563700
C 7.600200 17.316200 22.626000
H 6.691200 17.876400 22.397000
C 8.037800 17.217100 23.941900
H 7.480300 17.688200 24.753100
C 10.065300 17.246000 42.594900
C 10.557400 17.620500 43.850600
H 11.204400 18.494900 43.939600
C 10.186300 16.901300 44.984000
H 10.565600 17.203400 45.962700
C 9.341900 15.798000 44.872700
H 9.058800 15.231900 45.762500
C 8.875300 15.408300 43.616300
H 8.241300 14.523800 43.521200
C 9.224700 16.132600 42.480700
H 8.891600 15.807300 41.495600
C 11.633000 18.207600 41.168500
H 12.442500 17.820300 41.805100
C 12.003900 18.984900 39.986800
C 13.330400 19.304100 39.703600
H 14.132000 18.948200 40.354100
C 13.608000 20.091200 38.593000
H 14.643000 20.346400 38.355900
C 12.565400 20.558700 37.779900
C 11.263400 20.143700 38.129900
H 10.410800 20.456500 37.525100
C 12.809200 21.499100 36.672600
C 13.801900 22.457100 36.794000
H 14.409500 22.499200 37.701400
C 14.021100 23.444100 35.809400
C 15.019300 24.440300 35.969600
H 15.646500 24.424600 36.864400
C 15.190000 25.416200 35.017500
H 15.957100 26.182600 35.147300
C 14.364000 25.436600 33.870800
H 14.499800 26.224600 33.126600
C 13.390500 24.480800 33.685300
H 12.755800 24.510100 32.798300
C 13.195300 23.457700 34.643900
C 12.198000 22.447000 34.494700
C 12.011300 21.500600 35.485600
C 11.448200 19.257900 34.982900
H 11.546700 19.166000 33.889300
H 10.693600 18.541600 35.332200
H 12.412900 18.996200 35.444300
C 11.336100 22.401500 33.286500
C 9.984700 22.857800 33.351400
C 9.454500 23.469400 34.515900
H 10.093100 23.571000 35.395000
C 8.171100 23.966400 34.525800
H 7.794100 24.474800 35.415900
C 7.342300 23.850800 33.386400
H 6.329400 24.259000 33.406500
C 7.826200 23.254100 32.246900
H 7.203500 23.175400 31.353100
C 9.154300 22.759300 32.194500
C 9.688000 22.201700 31.010400
H 9.040500 22.121000 30.133100
C 11.015100 21.831000 30.926000
C 11.850900 21.968000 32.078200
C 13.697300 20.502100 32.421400
H 13.146100 19.633600 32.020400
H 13.672500 20.466100 33.520800
H 14.743100 20.450200 32.092100
C 10.862000 20.248500 29.013100
H 9.898900 19.910700 29.406600
C 11.567000 21.260600 29.684000
C 12.793500 21.653200 29.129700
H 13.377300 22.444500 29.600300
C 13.260100 21.019900 27.983000
H 14.214500 21.306200 27.535600
C 12.503800 19.992500 27.418500
C 13.010000 19.188300 26.304300
H 13.990100 19.452700 25.880600
C 12.904200 17.337200 24.894100
C 13.375900 17.873900 23.691100
H 13.297900 18.946600 23.505800
C 13.902600 17.028200 22.718600
H 14.257800 17.447700 21.774700
C 13.984800 15.655300 22.947700
H 14.409900 14.997800 22.186400
C 13.535800 15.125300 24.158700
H 13.627400 14.054200 24.352500
C 12.982800 15.958700 25.125700
H 12.659400 15.556000 26.086600
