
     RDKit          3D

  0  0  0  0  0  0  0  0  0  0999 V3000
M  V30 BEGIN CTAB
M  V30 COUNTS 43 48 0 0 0
M  V30 BEGIN ATOM
M  V30 1 Zn -0.3887 0.2757 0.2905 0 CHG=2
M  V30 2 C 1.0152 4.9489 0.7509 0
M  V30 3 C 1.9013 3.8814 0.7307 0
M  V30 4 C 1.3965 2.5855 0.6319 0
M  V30 5 H 2.9660 4.0463 0.7874 0
M  V30 6 N 0.0777 2.3336 0.5574 0
M  V30 7 C 2.2956 1.4443 0.6103 0
M  V30 8 C -0.7612 3.3588 0.5816 0
M  V30 9 C -0.3431 4.6813 0.6769 0
M  V30 10 H -1.8139 3.1187 0.5250 0
M  V30 11 H -1.0687 5.4786 0.6921 0
M  V30 12 H 1.3779 5.9625 0.8235 0
M  V30 13 N 1.8098 0.2730 0.4869 0
M  V30 14 H 3.3599 1.6504 0.7034 0
M  V30 15 Br 2.9285 -1.2016 0.4700 0
M  V30 16 C -0.4969 -1.1747 4.9571 0
M  V30 17 C -0.4294 -2.0318 3.8661 0
M  V30 18 C -0.4566 -1.4914 2.5841 0
M  V30 19 H -0.3549 -3.0993 4.0050 0
M  V30 20 N -0.5465 -0.1696 2.3628 0
M  V30 21 C -0.3866 -2.3409 1.4001 0
M  V30 22 C -0.6153 0.6417 3.4060 0
M  V30 23 C -0.5947 0.1871 4.7210 0
M  V30 24 H -0.6925 1.6987 3.1915 0
M  V30 25 H -0.6531 0.8901 5.5366 0
M  V30 26 H -0.4745 -1.5630 5.9636 0
M  V30 27 N -0.4011 -1.8092 0.2505 0
M  V30 28 H -0.3240 -3.4151 1.5699 0
M  V30 29 H -0.3376 -2.4530 -0.5328 0
M  V30 30 C -5.0127 0.6197 -1.2406 0
M  V30 31 C -3.9034 0.6112 -2.0769 0
M  V30 32 C -2.6341 0.5440 -1.5100 0
M  V30 33 H -4.0196 0.6522 -3.1490 0
M  V30 34 N -2.4432 0.4915 -0.1809 0
M  V30 35 C -1.4335 0.5195 -2.3393 0
M  V30 36 C -3.5035 0.5022 0.6108 0
M  V30 37 C -4.8076 0.5646 0.1286 0
M  V30 38 H -3.3112 0.4606 1.6740 0
M  V30 39 H -5.6384 0.5689 0.8159 0
M  V30 40 H -6.0096 0.6675 -1.6507 0
M  V30 41 N -0.2948 0.4232 -1.7917 0
M  V30 42 H -1.5831 0.5823 -3.4169 0
M  V30 43 H 0.4993 0.4004 -2.4253 0
M  V30 END ATOM
M  V30 BEGIN BOND
M  V30 1 1 2 12
M  V30 2 2 2 9
M  V30 3 1 3 2
M  V30 4 2 4 3
M  V30 5 1 4 6
M  V30 6 1 5 3
M  V30 7 2 6 8
M  V30 8 1 7 4
M  V30 9 1 8 9
M  V30 10 1 8 10
M  V30 11 1 9 11
M  V30 12 2 13 7
M  V30 13 1 14 7
M  V30 14 1 15 13
M  V30 15 1 16 26
M  V30 16 2 16 23
M  V30 17 1 17 16
M  V30 18 2 18 17
M  V30 19 1 18 20
M  V30 20 1 19 17
M  V30 21 2 20 22
M  V30 22 1 21 18
M  V30 23 1 22 23
M  V30 24 1 22 24
M  V30 25 1 23 25
M  V30 26 2 27 21
M  V30 27 1 28 21
M  V30 28 1 29 27
M  V30 29 1 30 40
M  V30 30 2 30 37
M  V30 31 1 31 30
M  V30 32 2 32 31
M  V30 33 1 32 34
M  V30 34 1 33 31
M  V30 35 2 34 36
M  V30 36 1 35 32
M  V30 37 1 36 37
M  V30 38 1 36 38
M  V30 39 1 37 39
M  V30 40 2 41 35
M  V30 41 1 42 35
M  V30 42 1 43 41
M  V30 43 9 13 1
M  V30 44 9 6 1
M  V30 45 9 27 1
M  V30 46 9 20 1
M  V30 47 9 41 1
M  V30 48 9 34 1
M  V30 END BOND
M  V30 END CTAB
M  END

$$$$
