
     RDKit          3D

  0  0  0  0  0  0  0  0  0  0999 V3000
M  V30 BEGIN CTAB
M  V30 COUNTS 43 48 0 0 0
M  V30 BEGIN ATOM
M  V30 1 Zn -0.2186 0.2186 -0.2186 0 CHG=2
M  V30 2 C 1.2547 4.8404 -0.0260 0
M  V30 3 C 2.1190 3.7545 -0.0220 0
M  V30 4 C 1.5920 2.4701 -0.1445 0
M  V30 5 H 3.1839 3.8966 0.0760 0
M  V30 6 N 0.2698 2.2479 -0.2655 0
M  V30 7 C 2.4657 1.3095 -0.1500 0
M  V30 8 C -0.5491 3.2910 -0.2716 0
M  V30 9 C -0.1050 4.6032 -0.1571 0
M  V30 10 H -1.6036 3.0737 -0.3733 0
M  V30 11 H -0.8130 5.4164 -0.1687 0
M  V30 12 H 1.6355 5.8455 0.0702 0
M  V30 13 N 1.9557 0.1458 -0.2602 0
M  V30 14 H 3.5344 1.4913 -0.0615 0
M  V30 15 Br 3.0455 -1.3473 -0.2722 0
M  V30 16 C -0.0259 -1.2547 -4.8404 0
M  V30 17 C -0.0220 -2.1189 -3.7545 0
M  V30 18 C -0.1445 -1.5920 -2.4701 0
M  V30 19 H 0.0760 -3.1839 -3.8966 0
M  V30 20 N -0.2655 -0.2698 -2.2479 0
M  V30 21 C -0.1500 -2.4657 -1.3095 0
M  V30 22 C -0.2715 0.5491 -3.2910 0
M  V30 23 C -0.1571 0.1050 -4.6032 0
M  V30 24 H -0.3732 1.6036 -3.0737 0
M  V30 25 H -0.1686 0.8131 -5.4164 0
M  V30 26 H 0.0704 -1.6354 -5.8455 0
M  V30 27 N -0.2603 -1.9557 -0.1458 0
M  V30 28 H -0.0615 -3.5344 -1.4913 0
M  V30 29 H -0.2723 -3.0455 1.3473 0
M  V30 30 C -4.8404 0.0259 1.2547 0
M  V30 31 C -3.7545 0.0220 2.1190 0
M  V30 32 C -2.4701 0.1445 1.5921 0
M  V30 33 H -3.8966 -0.0760 3.1839 0
M  V30 34 N -2.2480 0.2655 0.2698 0
M  V30 35 C -1.3095 0.1500 2.4657 0
M  V30 36 C -3.2910 0.2715 -0.5490 0
M  V30 37 C -4.6032 0.1571 -0.1050 0
M  V30 38 H -3.0737 0.3732 -1.6036 0
M  V30 39 H -5.4164 0.1687 -0.8130 0
M  V30 40 H -5.8455 -0.0703 1.6355 0
M  V30 41 N -0.1458 0.2603 1.9558 0
M  V30 42 H -1.4913 0.0615 3.5344 0
M  V30 43 H 1.3473 0.2722 3.0455 0
M  V30 END ATOM
M  V30 BEGIN BOND
M  V30 1 1 2 12
M  V30 2 2 2 9
M  V30 3 1 3 2
M  V30 4 2 4 3
M  V30 5 1 4 6
M  V30 6 1 5 3
M  V30 7 2 6 8
M  V30 8 1 7 4
M  V30 9 1 8 9
M  V30 10 1 8 10
M  V30 11 1 9 11
M  V30 12 2 13 7
M  V30 13 1 14 7
M  V30 14 1 15 13
M  V30 15 1 16 26
M  V30 16 2 16 23
M  V30 17 1 17 16
M  V30 18 2 18 17
M  V30 19 1 18 20
M  V30 20 1 19 17
M  V30 21 2 20 22
M  V30 22 1 21 18
M  V30 23 1 22 23
M  V30 24 1 22 24
M  V30 25 1 23 25
M  V30 26 2 27 21
M  V30 27 1 28 21
M  V30 28 1 29 27
M  V30 29 1 30 40
M  V30 30 2 30 37
M  V30 31 1 31 30
M  V30 32 2 32 31
M  V30 33 1 32 34
M  V30 34 1 33 31
M  V30 35 2 34 36
M  V30 36 1 35 32
M  V30 37 1 36 37
M  V30 38 1 36 38
M  V30 39 1 37 39
M  V30 40 2 41 35
M  V30 41 1 42 35
M  V30 42 1 43 41
M  V30 43 9 13 1
M  V30 44 9 6 1
M  V30 45 9 41 1
M  V30 46 9 34 1
M  V30 47 9 27 1
M  V30 48 9 20 1
M  V30 END BOND
M  V30 END CTAB
M  END

$$$$
