
     RDKit          3D

  0  0  0  0  0  0  0  0  0  0999 V3000
M  V30 BEGIN CTAB
M  V30 COUNTS 43 48 0 0 0
M  V30 BEGIN ATOM
M  V30 1 Zn -0.3873 0.2781 -0.2896 0 CHG=2
M  V30 2 C 1.0887 4.9251 -0.7859 0
M  V30 3 C 1.9577 3.8437 -0.7635 0
M  V30 4 C 1.4328 2.5567 -0.6539 0
M  V30 5 H 3.0246 3.9912 -0.8269 0
M  V30 6 N 0.1106 2.3265 -0.5711 0
M  V30 7 C 2.3137 1.4014 -0.6295 0
M  V30 8 C -0.7120 3.3648 -0.5972 0
M  V30 9 C -0.2733 4.6798 -0.7030 0
M  V30 10 H -1.7681 3.1418 -0.5339 0
M  V30 11 H -0.9862 5.4884 -0.7195 0
M  V30 12 H 1.4672 5.9323 -0.8669 0
M  V30 13 N 1.8099 0.2389 -0.4961 0
M  V30 14 H 3.3806 1.5898 -0.7290 0
M  V30 15 Br 2.9051 -1.2531 -0.4748 0
M  V30 16 C -0.5448 -1.1980 -4.9469 0
M  V30 17 C -0.4848 -2.0496 -3.8512 0
M  V30 18 C -0.4955 -1.5012 -2.5722 0
M  V30 19 H -0.4289 -3.1189 -3.9840 0
M  V30 20 N -0.5624 -0.1768 -2.3584 0
M  V30 21 C -0.4326 -2.3446 -1.3836 0
M  V30 22 C -0.6239 0.6293 -3.4061 0
M  V30 23 C -0.6186 0.1666 -4.7185 0
M  V30 24 H -0.6819 1.6888 -3.1976 0
M  V30 25 H -0.6700 0.8656 -5.5379 0
M  V30 26 H -0.5350 -1.5926 -5.9511 0
M  V30 27 N -0.4330 -1.8060 -0.2371 0
M  V30 28 H -0.3879 -3.4207 -1.5472 0
M  V30 29 H -0.3751 -2.4461 0.5497 0
M  V30 30 C -4.9984 0.7058 1.2599 0
M  V30 31 C -3.8857 0.6841 2.0913 0
M  V30 32 C -2.6201 0.5928 1.5192 0
M  V30 33 H -3.9963 0.7329 3.1636 0
M  V30 34 N -2.4361 0.5291 0.1896 0
M  V30 35 C -1.4164 0.5534 2.3433 0
M  V30 36 C -3.4998 0.5526 -0.5974 0
M  V30 37 C -4.8004 0.6395 -0.1098 0
M  V30 38 H -3.3130 0.5020 -1.6613 0
M  V30 39 H -5.6341 0.6536 -0.7935 0
M  V30 40 H -5.9925 0.7725 1.6741 0
M  V30 41 N -0.2819 0.4359 1.7913 0
M  V30 42 H -1.5601 0.6244 3.4212 0
M  V30 43 H 0.5146 0.4045 2.4214 0
M  V30 END ATOM
M  V30 BEGIN BOND
M  V30 1 1 2 12
M  V30 2 2 2 9
M  V30 3 1 3 2
M  V30 4 2 4 3
M  V30 5 1 4 6
M  V30 6 1 5 3
M  V30 7 2 6 8
M  V30 8 1 7 4
M  V30 9 1 8 9
M  V30 10 1 8 10
M  V30 11 1 9 11
M  V30 12 2 13 7
M  V30 13 1 14 7
M  V30 14 1 15 13
M  V30 15 1 16 26
M  V30 16 2 16 23
M  V30 17 1 17 16
M  V30 18 2 18 17
M  V30 19 1 18 20
M  V30 20 1 19 17
M  V30 21 2 20 22
M  V30 22 1 21 18
M  V30 23 1 22 23
M  V30 24 1 22 24
M  V30 25 1 23 25
M  V30 26 2 27 21
M  V30 27 1 28 21
M  V30 28 1 29 27
M  V30 29 1 30 40
M  V30 30 2 30 37
M  V30 31 1 31 30
M  V30 32 2 32 31
M  V30 33 1 32 34
M  V30 34 1 33 31
M  V30 35 2 34 36
M  V30 36 1 35 32
M  V30 37 1 36 37
M  V30 38 1 36 38
M  V30 39 1 37 39
M  V30 40 2 41 35
M  V30 41 1 42 35
M  V30 42 1 43 41
M  V30 43 9 13 1
M  V30 44 9 6 1
M  V30 45 9 41 1
M  V30 46 9 34 1
M  V30 47 9 27 1
M  V30 48 9 20 1
M  V30 END BOND
M  V30 END CTAB
M  END

$$$$
