
     RDKit          3D

  0  0  0  0  0  0  0  0  0  0999 V3000
M  V30 BEGIN CTAB
M  V30 COUNTS 237 258 0 0 0
M  V30 BEGIN ATOM
M  V30 1 Pd 8.8522 -2.0601 -1.3981 0 CHG=2
M  V30 2 Pd -2.8764 -8.3916 -1.0985 0 CHG=2
M  V30 3 Pd -2.6821 4.8824 -0.0743 0 CHG=2
M  V30 4 C 9.7292 -1.3335 1.2902 0
M  V30 5 C 9.6888 -0.7549 2.5479 0
M  V30 6 C 8.5699 -0.0230 2.9168 0
M  V30 7 C 7.5196 0.0887 2.0073 0
M  V30 8 C 6.2901 0.8975 2.2910 0
M  V30 9 O 6.2655 1.2557 3.5731 0
M  V30 10 C 5.3281 2.0748 4.1786 0
M  V30 11 C 4.3721 2.8178 3.5016 0
M  V30 12 C 3.5431 3.6469 4.2442 0
M  V30 13 O 2.6250 4.4775 3.6084 0
M  V30 14 C 1.6709 3.9662 2.8254 0
M  V30 15 C 0.8392 5.0505 2.2260 0
M  V30 16 C -0.2687 4.6992 1.4667 0
M  V30 17 N -1.0710 5.6099 0.9187 0
M  V30 18 C -0.8196 6.9160 1.0763 0
M  V30 19 C -1.7447 7.8935 0.4395 0
M  V30 20 C 0.2857 7.3391 1.8161 0
M  V30 21 C 1.1206 6.4085 2.4011 0
M  V30 22 O 1.4737 2.7937 2.6333 0
M  V30 23 C 3.6435 3.7361 5.6238 0
M  V30 24 C 4.5965 2.9749 6.2801 0
M  V30 25 C 5.4395 2.1465 5.5648 0
M  V30 26 O 5.4761 1.1585 1.4414 0
M  V30 27 C 7.6342 -0.5390 0.7685 0
M  V30 28 N 8.7195 -1.2235 0.4220 0
M  V30 29 H 10.5988 -1.9005 0.9727 0
M  V30 30 H 10.5222 -0.8648 3.2231 0
M  V30 31 H 8.5120 0.4567 3.8806 0
M  V30 32 H 4.2722 2.7647 2.4301 0
M  V30 33 H -0.5017 3.6458 1.3137 0
M  V30 34 H -2.1055 8.6092 1.1772 0
M  V30 35 H -1.2087 8.4728 -0.3124 0
M  V30 36 H -2.5962 7.3833 -0.0361 0
M  V30 37 H 0.4769 8.3944 1.9303 0
M  V30 38 H 1.9745 6.7163 2.9829 0
M  V30 39 H 2.9869 4.3950 6.1686 0
M  V30 40 H 4.6836 3.0334 7.3531 0
M  V30 41 H 6.1905 1.5573 6.0652 0
M  V30 42 H 6.8175 -0.4645 0.0537 0
M  V30 43 C -2.0499 6.0093 -2.7422 0
M  V30 44 C -1.4440 6.0396 -3.9888 0
M  V30 45 C -0.4867 5.0849 -4.2999 0
M  V30 46 C -0.1680 4.1317 -3.3344 0
M  V30 47 C 0.8576 3.0640 -3.5407 0
M  V30 48 O 1.1882 2.9565 -4.8290 0
M  V30 49 C 2.1586 2.0543 -5.2475 0
M  V30 50 C 3.3509 1.8959 -4.5583 0
M  V30 51 C 4.2932 1.0162 -5.0680 0
M  V30 52 O 5.5040 0.8041 -4.4115 0
M  V30 53 C 6.2548 1.8553 -4.0512 0
M  V30 54 C 7.5179 1.4159 -3.3925 0
M  V30 55 C 7.6728 0.1627 -2.8168 0
M  V30 56 N 8.8208 -0.2121 -2.2495 0
M  V30 57 C 9.8720 0.6175 -2.2238 0
M  V30 58 C 11.1411 0.1366 -1.6085 0
M  V30 59 C 9.7757 1.9012 -2.7632 0
M  V30 60 C 8.5940 2.3082 -3.3459 0
M  V30 61 O 5.9769 3.0092 -4.2499 0
M  V30 62 C 4.0549 0.2986 -6.2313 0
M  V30 63 C 2.8557 0.4731 -6.9012 0
M  V30 64 C 1.9027 1.3526 -6.4177 0
M  V30 65 O 1.2827 2.3855 -2.6417 0
M  V30 66 C -0.8201 4.1738 -2.1055 0
M  V30 67 N -1.7394 5.0916 -1.8240 0
M  V30 68 H -2.8057 6.7416 -2.4774 0
M  V30 69 H -1.7176 6.7979 -4.7047 0
M  V30 70 H 0.0047 5.0782 -5.2600 0
M  V30 71 H 3.5493 2.4514 -3.6568 0
M  V30 72 H 6.8545 -0.5550 -2.8127 0
M  V30 73 H 11.0820 -0.9294 -1.3437 0
M  V30 74 H 11.9744 0.2989 -2.2911 0
M  V30 75 H 11.3630 0.7174 -0.7131 0
M  V30 76 H 10.6262 2.5630 -2.7239 0
M  V30 77 H 8.4837 3.2927 -3.7739 0
M  V30 78 H 4.8065 -0.3720 -6.6127 0
M  V30 79 H 2.6664 -0.0737 -7.8112 0
M  V30 80 H 0.9726 1.5077 -6.9404 0
M  V30 81 H -0.5677 3.4358 -1.3437 0
M  V30 82 C -2.7478 -9.7416 1.5347 0
M  V30 83 C -2.3237 -9.9286 2.8412 0
M  V30 84 C -1.3365 -9.0986 3.3483 0
M  V30 85 C -0.8005 -8.1116 2.5209 0
M  V30 86 C 0.2483 -7.1972 3.0696 0
M  V30 87 O 0.8333 -6.4942 2.0926 0
M  V30 88 C 1.7925 -5.5310 2.4094 0
M  V30 89 C 3.0053 -5.6023 1.7379 0
M  V30 90 C 3.9582 -4.6316 1.9986 0
M  V30 91 O 5.1978 -4.6071 1.3685 0
M  V30 92 C 5.9267 -5.7216 1.2085 0
M  V30 93 C 7.2550 -5.3892 0.6163 0
M  V30 94 C 7.4941 -4.1939 -0.0466 0
M  V30 95 N 8.7021 -3.8813 -0.5192 0
M  V30 96 C 9.7332 -4.7215 -0.3680 0
M  V30 97 C 11.0675 -4.2991 -0.8760 0
M  V30 98 C 9.5519 -5.9578 0.2556 0
M  V30 99 C 8.3100 -6.2980 0.7505 0
M  V30 100 O 5.5907 -6.8328 1.5230 0
M  V30 101 C 3.7032 -3.6000 2.8941 0
M  V30 102 C 2.4856 -3.5474 3.5454 0
M  V30 103 C 1.5223 -4.5159 3.3125 0
M  V30 104 O 0.5173 -7.1246 4.2396 0
M  V30 105 C -1.2808 -7.9922 1.2205 0
M  V30 106 N -2.2342 -8.7938 0.7494 0
M  V30 107 H -3.5245 -10.3697 1.1117 0
M  V30 108 H -2.7590 -10.7048 3.4496 0
M  V30 109 H -0.9751 -9.1952 4.3609 0
M  V30 110 H 3.1924 -6.4079 1.0480 0
M  V30 111 H 6.6944 -3.4699 -0.1985 0
M  V30 112 H 11.0453 -3.2635 -1.2461 0
M  V30 113 H 11.8166 -4.3938 -0.0908 0
M  V30 114 H 11.3852 -4.9590 -1.6833 0
M  V30 115 H 10.3870 -6.6328 0.3554 0
M  V30 116 H 8.1383 -7.2398 1.2483 0
M  V30 117 H 4.4646 -2.8604 3.0779 0
M  V30 118 H 2.2836 -2.7532 4.2458 0
M  V30 119 H 0.5800 -4.4858 3.8348 0
M  V30 120 H -0.8821 -7.2295 0.5525 0
M  V30 121 C 9.9992 -2.5469 -4.0224 0
M  V30 122 C 10.1259 -3.0047 -5.3230 0
M  V30 123 C 9.1672 -3.8743 -5.8171 0
M  V30 124 C 8.1223 -4.2649 -4.9798 0
M  V30 125 C 7.1668 -5.2882 -5.5057 0
M  V30 126 O 6.5939 -5.9850 -4.5121 0
M  V30 127 C 5.9616 -7.1920 -4.8148 0
M  V30 128 C 4.7102 -7.4320 -4.2626 0
M  V30 129 C 4.1202 -8.6658 -4.4955 0
M  V30 130 O 2.9035 -9.0790 -3.9886 0
M  V30 131 C 2.0521 -8.3702 -3.2475 0
M  V30 132 C 0.8876 -9.2287 -2.8729 0
M  V30 133 C -0.2165 -8.6628 -2.2483 0
M  V30 134 N -1.2850 -9.3817 -1.9038 0
M  V30 135 C -1.3153 -10.7000 -2.1436 0
M  V30 136 C -2.5194 -11.4777 -1.7449 0
M  V30 137 C -0.2348 -11.3355 -2.7568 0
M  V30 138 C 0.8718 -10.6035 -3.1295 0
M  V30 139 O 2.1625 -7.2167 -2.9136 0
M  V30 140 C 4.7557 -9.6270 -5.2788 0
M  V30 141 C 5.9963 -9.3606 -5.8208 0
M  V30 142 C 6.6128 -8.1433 -5.5842 0
M  V30 143 O 6.9835 -5.4733 -6.6795 0
M  V30 144 C 8.0497 -3.7312 -3.6961 0
M  V30 145 N 8.9722 -2.8875 -3.2372 0
M  V30 146 H 10.7504 -1.8858 -3.6030 0
M  V30 147 H 10.9597 -2.6961 -5.9326 0
M  V30 148 H 9.2178 -4.2658 -6.8217 0
M  V30 149 H 4.2200 -6.6752 -3.6740 0
M  V30 150 H -0.2253 -7.5962 -2.0310 0
M  V30 151 H -2.2342 -12.2731 -1.0566 0
M  V30 152 H -3.2678 -10.8333 -1.2641 0
M  V30 153 H -2.9538 -11.9683 -2.6158 0
M  V30 154 H -0.2761 -12.3978 -2.9380 0
M  V30 155 H 1.7130 -11.0788 -3.6065 0
M  V30 156 H 4.2689 -10.5729 -5.4507 0
M  V30 157 H 6.4923 -10.1037 -6.4242 0
M  V30 158 H 7.5873 -7.9401 -5.9984 0
M  V30 159 H 7.2296 -3.9964 -3.0366 0
M  V30 160 C -3.9150 5.6337 2.4473 0
M  V30 161 C -4.3187 5.5072 3.7658 0
M  V30 162 C -4.3702 4.2408 4.3255 0
M  V30 163 C -4.0485 3.1407 3.5304 0
M  V30 164 C -4.1938 1.7845 4.1489 0
M  V30 165 O -4.6743 0.8982 3.2660 0
M  V30 166 C -5.2121 -0.3130 3.7003 0
M  V30 167 C -5.0239 -1.4190 2.8793 0
M  V30 168 C -5.6384 -2.6106 3.2327 0
M  V30 169 O -5.6112 -3.7682 2.4773 0
M  V30 170 C -4.7429 -4.0721 1.5109 0
M  V30 171 C -5.1006 -5.4046 0.9361 0
M  V30 172 C -4.1587 -6.1342 0.2229 0
M  V30 173 N -4.4222 -7.3450 -0.2706 0
M  V30 174 C -5.6378 -7.8864 -0.1108 0
M  V30 175 C -5.9028 -9.2398 -0.6692 0
M  V30 176 C -6.6408 -7.1943 0.5695 0
M  V30 177 C -6.3757 -5.9533 1.1070 0
M  V30 178 O -3.7992 -3.4158 1.1501 0
M  V30 179 C -6.4052 -2.7062 4.3913 0
M  V30 180 C -6.5708 -1.5959 5.1936 0
M  V30 181 C -5.9856 -0.3887 4.8482 0
M  V30 182 O -3.9425 1.5646 5.3037 0
M  V30 183 C -3.6349 3.3561 2.2198 0
M  V30 184 N -3.5611 4.5820 1.7045 0
M  V30 185 H -3.8750 6.6108 1.9762 0
M  V30 186 H -4.5846 6.3778 4.3433 0
M  V30 187 H -4.6629 4.0896 5.3532 0
M  V30 188 H -4.4173 -1.3401 1.9938 0
M  V30 189 H -3.1646 -5.7217 0.0614 0
M  V30 190 H -5.0105 -9.6470 -1.1632 0
M  V30 191 H -6.2321 -9.9138 0.1212 0
M  V30 192 H -6.7194 -9.1889 -1.3891 0
M  V30 193 H -7.6156 -7.6427 0.6784 0
M  V30 194 H -7.1350 -5.4100 1.6457 0
M  V30 195 H -6.8675 -3.6467 4.6426 0
M  V30 196 H -7.1687 -1.6615 6.0883 0
M  V30 197 H -6.1360 0.4775 5.4712 0
M  V30 198 H -3.3541 2.5218 1.5828 0
M  V30 199 C -3.9960 -8.6402 -3.8307 0
M  V30 200 C -4.2267 -8.2509 -5.1410 0
M  V30 201 C -3.8249 -6.9870 -5.5434 0
M  V30 202 C -3.2151 -6.1503 -4.6089 0
M  V30 203 C -2.7744 -4.7857 -5.0319 0
M  V30 204 O -2.5627 -4.0041 -3.9661 0
M  V30 205 C -2.1209 -2.6932 -4.1435 0
M  V30 206 C -2.8676 -1.6925 -3.5370 0
M  V30 207 C -2.4293 -0.3841 -3.6507 0
M  V30 208 O -3.0808 0.6883 -3.0563 0
M  V30 209 C -4.4190 0.7814 -2.9926 0
M  V30 210 C -4.7950 2.0831 -2.3698 0
M  V30 211 C -3.9094 2.7799 -1.5606 0
M  V30 212 N -4.1944 3.9911 -1.0829 0
M  V30 213 C -5.3665 4.5748 -1.3601 0
M  V30 214 C -5.5977 5.9514 -0.8447 0
M  V30 215 C -6.3289 3.9012 -2.1156 0
M  V30 216 C -6.0458 2.6519 -2.6294 0
M  V30 217 O -5.2050 -0.0294 -3.4045 0
M  V30 218 C -1.2631 -0.0802 -4.3440 0
M  V30 219 C -0.5353 -1.0945 -4.9355 0
M  V30 220 C -0.9601 -2.4105 -4.8439 0
M  V30 221 O -2.6472 -4.4513 -6.1797 0
M  V30 222 C -3.0186 -6.6188 -3.3135 0
M  V30 223 N -3.4021 -7.8394 -2.9443 0
M  V30 224 H -4.2959 -9.6248 -3.4887 0
M  V30 225 H -4.7079 -8.9237 -5.8322 0
M  V30 226 H -3.9730 -6.6368 -6.5536 0
M  V30 227 H -3.7711 -1.9429 -3.0073 0
M  V30 228 H -2.9445 2.3494 -1.2972 0
M  V30 229 H -6.0207 6.5826 -1.6240 0
M  V30 230 H -6.3261 5.9276 -0.0335 0
M  V30 231 H -4.6601 6.3943 -0.4761 0
M  V30 232 H -7.2801 4.3712 -2.3088 0
M  V30 233 H -6.7582 2.1171 -3.2384 0
M  V30 234 H -0.9463 0.9471 -4.4143 0
M  V30 235 H 0.3681 -0.8603 -5.4758 0
M  V30 236 H -0.4014 -3.2012 -5.3172 0
M  V30 237 H -2.5399 -5.9888 -2.5645 0
M  V30 END ATOM
M  V30 BEGIN BOND
M  V30 1 2 4 5
M  V30 2 1 5 6
M  V30 3 2 6 7
M  V30 4 1 7 8
M  V30 5 1 8 9
M  V30 6 1 9 10
M  V30 7 2 10 11
M  V30 8 1 11 12
M  V30 9 1 12 13
M  V30 10 1 13 14
M  V30 11 1 14 15
M  V30 12 2 15 16
M  V30 13 1 16 17
M  V30 14 2 17 18
M  V30 15 1 18 19
M  V30 16 1 18 20
M  V30 17 2 20 21
M  V30 18 2 14 22
M  V30 19 2 12 23
M  V30 20 1 23 24
M  V30 21 2 24 25
M  V30 22 2 8 26
M  V30 23 1 7 27
M  V30 24 2 27 28
M  V30 25 1 28 4
M  V30 26 1 25 10
M  V30 27 1 21 15
M  V30 28 1 4 29
M  V30 29 1 5 30
M  V30 30 1 6 31
M  V30 31 1 11 32
M  V30 32 1 16 33
M  V30 33 1 19 34
M  V30 34 1 19 35
M  V30 35 1 19 36
M  V30 36 1 20 37
M  V30 37 1 21 38
M  V30 38 1 23 39
M  V30 39 1 24 40
M  V30 40 1 25 41
M  V30 41 1 27 42
M  V30 42 2 43 44
M  V30 43 1 44 45
M  V30 44 2 45 46
M  V30 45 1 46 47
M  V30 46 1 47 48
M  V30 47 1 48 49
M  V30 48 2 49 50
M  V30 49 1 50 51
M  V30 50 1 51 52
M  V30 51 1 52 53
M  V30 52 1 53 54
M  V30 53 2 54 55
M  V30 54 1 55 56
M  V30 55 2 56 57
M  V30 56 1 57 58
M  V30 57 1 57 59
M  V30 58 2 59 60
M  V30 59 2 53 61
M  V30 60 2 51 62
M  V30 61 1 62 63
M  V30 62 2 63 64
M  V30 63 2 47 65
M  V30 64 1 46 66
M  V30 65 2 66 67
M  V30 66 1 67 43
M  V30 67 1 64 49
M  V30 68 1 60 54
M  V30 69 1 43 68
M  V30 70 1 44 69
M  V30 71 1 45 70
M  V30 72 1 50 71
M  V30 73 1 55 72
M  V30 74 1 58 73
M  V30 75 1 58 74
M  V30 76 1 58 75
M  V30 77 1 59 76
M  V30 78 1 60 77
M  V30 79 1 62 78
M  V30 80 1 63 79
M  V30 81 1 64 80
M  V30 82 1 66 81
M  V30 83 2 82 83
M  V30 84 1 83 84
M  V30 85 2 84 85
M  V30 86 1 85 86
M  V30 87 1 86 87
M  V30 88 1 87 88
M  V30 89 2 88 89
M  V30 90 1 89 90
M  V30 91 1 90 91
M  V30 92 1 91 92
M  V30 93 1 92 93
M  V30 94 2 93 94
M  V30 95 1 94 95
M  V30 96 2 95 96
M  V30 97 1 96 97
M  V30 98 1 96 98
M  V30 99 2 98 99
M  V30 100 2 92 100
M  V30 101 2 90 101
M  V30 102 1 101 102
M  V30 103 2 102 103
M  V30 104 2 86 104
M  V30 105 1 85 105
M  V30 106 2 105 106
M  V30 107 1 106 82
M  V30 108 1 103 88
M  V30 109 1 99 93
M  V30 110 1 82 107
M  V30 111 1 83 108
M  V30 112 1 84 109
M  V30 113 1 89 110
M  V30 114 1 94 111
M  V30 115 1 97 112
M  V30 116 1 97 113
M  V30 117 1 97 114
M  V30 118 1 98 115
M  V30 119 1 99 116
M  V30 120 1 101 117
M  V30 121 1 102 118
M  V30 122 1 103 119
M  V30 123 1 105 120
M  V30 124 2 121 122
M  V30 125 1 122 123
M  V30 126 2 123 124
M  V30 127 1 124 125
M  V30 128 1 125 126
M  V30 129 1 126 127
M  V30 130 2 127 128
M  V30 131 1 128 129
M  V30 132 1 129 130
M  V30 133 1 130 131
M  V30 134 1 131 132
M  V30 135 2 132 133
M  V30 136 1 133 134
M  V30 137 2 134 135
M  V30 138 1 135 136
M  V30 139 1 135 137
M  V30 140 2 137 138
M  V30 141 2 131 139
M  V30 142 2 129 140
M  V30 143 1 140 141
M  V30 144 2 141 142
M  V30 145 2 125 143
M  V30 146 1 124 144
M  V30 147 2 144 145
M  V30 148 1 145 121
M  V30 149 1 142 127
M  V30 150 1 138 132
M  V30 151 1 121 146
M  V30 152 1 122 147
M  V30 153 1 123 148
M  V30 154 1 128 149
M  V30 155 1 133 150
M  V30 156 1 136 151
M  V30 157 1 136 152
M  V30 158 1 136 153
M  V30 159 1 137 154
M  V30 160 1 138 155
M  V30 161 1 140 156
M  V30 162 1 141 157
M  V30 163 1 142 158
M  V30 164 1 144 159
M  V30 165 2 160 161
M  V30 166 1 161 162
M  V30 167 2 162 163
M  V30 168 1 163 164
M  V30 169 1 164 165
M  V30 170 1 165 166
M  V30 171 2 166 167
M  V30 172 1 167 168
M  V30 173 1 168 169
M  V30 174 1 169 170
M  V30 175 1 170 171
M  V30 176 2 171 172
M  V30 177 1 172 173
M  V30 178 2 173 174
M  V30 179 1 174 175
M  V30 180 1 174 176
M  V30 181 2 176 177
M  V30 182 2 170 178
M  V30 183 2 168 179
M  V30 184 1 179 180
M  V30 185 2 180 181
M  V30 186 2 164 182
M  V30 187 1 163 183
M  V30 188 2 183 184
M  V30 189 1 184 160
M  V30 190 1 181 166
M  V30 191 1 177 171
M  V30 192 1 160 185
M  V30 193 1 161 186
M  V30 194 1 162 187
M  V30 195 1 167 188
M  V30 196 1 172 189
M  V30 197 1 175 190
M  V30 198 1 175 191
M  V30 199 1 175 192
M  V30 200 1 176 193
M  V30 201 1 177 194
M  V30 202 1 179 195
M  V30 203 1 180 196
M  V30 204 1 181 197
M  V30 205 1 183 198
M  V30 206 2 199 200
M  V30 207 1 200 201
M  V30 208 2 201 202
M  V30 209 1 202 203
M  V30 210 1 203 204
M  V30 211 1 204 205
M  V30 212 2 205 206
M  V30 213 1 206 207
M  V30 214 1 207 208
M  V30 215 1 208 209
M  V30 216 1 209 210
M  V30 217 2 210 211
M  V30 218 1 211 212
M  V30 219 2 212 213
M  V30 220 1 213 214
M  V30 221 1 213 215
M  V30 222 2 215 216
M  V30 223 2 209 217
M  V30 224 2 207 218
M  V30 225 1 218 219
M  V30 226 2 219 220
M  V30 227 2 203 221
M  V30 228 1 202 222
M  V30 229 2 222 223
M  V30 230 1 223 199
M  V30 231 1 220 205
M  V30 232 1 216 210
M  V30 233 1 199 224
M  V30 234 1 200 225
M  V30 235 1 201 226
M  V30 236 1 206 227
M  V30 237 1 211 228
M  V30 238 1 214 229
M  V30 239 1 214 230
M  V30 240 1 214 231
M  V30 241 1 215 232
M  V30 242 1 216 233
M  V30 243 1 218 234
M  V30 244 1 219 235
M  V30 245 1 220 236
M  V30 246 1 222 237
M  V30 247 9 28 1
M  V30 248 9 56 1
M  V30 249 9 95 1
M  V30 250 9 145 1
M  V30 251 9 106 2
M  V30 252 9 134 2
M  V30 253 9 173 2
M  V30 254 9 223 2
M  V30 255 9 17 3
M  V30 256 9 67 3
M  V30 257 9 184 3
M  V30 258 9 212 3
M  V30 END BOND
M  V30 END CTAB
M  END

$$$$
