
     RDKit          3D

  0  0  0  0  0  0  0  0  0  0999 V3000
M  V30 BEGIN CTAB
M  V30 COUNTS 237 258 0 0 0
M  V30 BEGIN ATOM
M  V30 1 Pd 8.8008 -1.1691 0.6540 0 CHG=2
M  V30 2 Pd -2.1127 -7.6082 0.0526 0 CHG=2
M  V30 3 Pd -3.1541 5.2045 -0.6615 0 CHG=2
M  V30 4 C -0.6741 6.8347 -0.6684 0
M  V30 5 C 0.6691 7.1071 -0.4587 0
M  V30 6 C 1.4628 6.1434 0.1441 0
M  V30 7 C 0.8824 4.9262 0.4993 0
M  V30 8 C 1.7071 3.8902 1.1952 0
M  V30 9 O 1.0099 2.7517 1.3112 0
M  V30 10 C 1.4547 1.6511 2.0286 0
M  V30 11 C 2.7900 1.3312 2.2010 0
M  V30 12 C 3.1121 0.2139 2.9617 0
M  V30 13 O 4.4689 -0.0735 3.0700 0
M  V30 14 C 5.0387 -0.3177 4.2630 0
M  V30 15 C 6.5043 -0.5138 4.0756 0
M  V30 16 C 7.0282 -0.8045 2.8254 0
M  V30 17 N 8.3398 -0.8882 2.6044 0
M  V30 18 C 9.2060 -0.7291 3.6121 0
M  V30 19 C 10.6600 -0.8298 3.3160 0
M  V30 20 C 8.7438 -0.4822 4.9080 0
M  V30 21 C 7.3899 -0.3623 5.1469 0
M  V30 22 O 4.4686 -0.3350 5.3196 0
M  V30 23 C 2.1341 -0.5878 3.5251 0
M  V30 24 C 0.8023 -0.2635 3.3153 0
M  V30 25 C 0.4561 0.8489 2.5730 0
M  V30 26 O 2.8167 4.0916 1.6089 0
M  V30 27 C -0.4701 4.7277 0.2412 0
M  V30 28 N -1.2251 5.6709 -0.3177 0
M  V30 29 H -1.3214 7.5722 -1.1329 0
M  V30 30 H 1.0814 8.0585 -0.7537 0
M  V30 31 H 2.5101 6.3108 0.3428 0
M  V30 32 H 3.5771 1.9409 1.7904 0
M  V30 33 H 6.3646 -0.9742 1.9795 0
M  V30 34 H 11.0942 -1.6630 3.8679 0
M  V30 35 H 10.8378 -0.9752 2.2432 0
M  V30 36 H 11.1791 0.0651 3.6560 0
M  V30 37 H 9.4540 -0.3720 5.7122 0
M  V30 38 H 7.0060 -0.1479 6.1322 0
M  V30 39 H 2.4047 -1.4374 4.1296 0
M  V30 40 H 0.0289 -0.8759 3.7502 0
M  V30 41 H -0.5776 1.1145 2.4257 0
M  V30 42 H -0.9499 3.7879 0.5072 0
M  V30 43 C -2.9788 5.7305 -3.6232 0
M  V30 44 C -2.5323 5.4605 -4.9093 0
M  V30 45 C -1.7227 4.3556 -5.1247 0
M  V30 46 C -1.3993 3.5467 -4.0356 0
M  V30 47 C -0.4503 2.4009 -4.1902 0
M  V30 48 O 0.0838 2.1145 -2.9935 0
M  V30 49 C 1.0704 1.1435 -2.8446 0
M  V30 50 C 2.1728 1.5252 -2.0888 0
M  V30 51 C 3.1836 0.6029 -1.8784 0
M  V30 52 O 4.3646 0.8608 -1.2024 0
M  V30 53 C 4.8242 2.0826 -0.8980 0
M  V30 54 C 6.2276 1.9918 -0.4018 0
M  V30 55 C 6.8430 0.7761 -0.1406 0
M  V30 56 N 8.1189 0.6956 0.2363 0
M  V30 57 C 8.8630 1.8015 0.3577 0
M  V30 58 C 10.2960 1.6429 0.7208 0
M  V30 59 C 8.2981 3.0606 0.1424 0
M  V30 60 C 6.9751 3.1622 -0.2337 0
M  V30 61 O 4.2271 3.1203 -1.0220 0
M  V30 62 C 3.0721 -0.6921 -2.3806 0
M  V30 63 C 1.9594 -1.0504 -3.1153 0
M  V30 64 C 0.9497 -0.1326 -3.3652 0
M  V30 65 O -0.1828 1.8631 -5.2291 0
M  V30 66 C -1.9278 3.8598 -2.7889 0
M  V30 67 N -2.6861 4.9376 -2.5932 0
M  V30 68 H -3.5865 6.6053 -3.4224 0
M  V30 69 H -2.8019 6.1136 -5.7236 0
M  V30 70 H -1.3327 4.1203 -6.1032 0
M  V30 71 H 2.2330 2.5322 -1.7130 0
M  V30 72 H 6.2916 -0.1558 -0.2509 0
M  V30 73 H 10.6040 0.5887 0.6525 0
M  V30 74 H 10.9204 2.2477 0.0654 0
M  V30 75 H 10.4659 2.0072 1.7343 0
M  V30 76 H 8.9051 3.9437 0.2630 0
M  V30 77 H 6.5115 4.1191 -0.4161 0
M  V30 78 H 3.8691 -1.3957 -2.2077 0
M  V30 79 H 1.8836 -2.0482 -3.5163 0
M  V30 80 H 0.0980 -0.4012 -3.9675 0
M  V30 81 H -1.7226 3.2216 -1.9288 0
M  V30 82 C 10.6163 -3.4592 0.7774 0
M  V30 83 C 11.0284 -4.7705 0.9495 0
M  V30 84 C 10.1070 -5.7034 1.3987 0
M  V30 85 C 8.8012 -5.2867 1.6593 0
M  V30 86 C 7.8424 -6.2858 2.2227 0
M  V30 87 O 6.6984 -5.7064 2.6218 0
M  V30 88 C 5.8017 -6.4503 3.3905 0
M  V30 89 C 4.4622 -6.4368 3.0314 0
M  V30 90 C 3.5592 -7.1413 3.8146 0
M  V30 91 O 2.2283 -7.1770 3.4042 0
M  V30 92 C 1.2524 -7.0838 4.3258 0
M  V30 93 C -0.0565 -7.5510 3.7807 0
M  V30 94 C -0.4541 -7.4064 2.4597 0
M  V30 95 N -1.5920 -7.9352 2.0012 0
M  V30 96 C -2.3817 -8.6474 2.8183 0
M  V30 97 C -3.5935 -9.3174 2.2686 0
M  V30 98 C -2.0704 -8.7782 4.1728 0
M  V30 99 C -0.9085 -8.2234 4.6634 0
M  V30 100 O 1.4028 -6.7204 5.4613 0
M  V30 101 C 3.9831 -7.8549 4.9267 0
M  V30 102 C 5.3217 -7.8389 5.2749 0
M  V30 103 C 6.2380 -7.1339 4.5155 0
M  V30 104 O 8.0936 -7.4577 2.3160 0
M  V30 105 C 8.4634 -3.9552 1.4357 0
M  V30 106 N 9.3601 -3.0694 1.0083 0
M  V30 107 H 11.3204 -2.7017 0.4452 0
M  V30 108 H 12.0485 -5.0539 0.7468 0
M  V30 109 H 10.3756 -6.7362 1.5614 0
M  V30 110 H 4.1304 -5.9008 2.1586 0
M  V30 111 H 0.1582 -6.8510 1.7562 0
M  V30 112 H -4.4930 -8.8702 2.6913 0
M  V30 113 H -3.6327 -9.2593 1.1743 0
M  V30 114 H -3.6027 -10.3638 2.5712 0
M  V30 115 H -2.7340 -9.3267 4.8223 0
M  V30 116 H -0.6354 -8.3148 5.7033 0
M  V30 117 H 3.2811 -8.4170 5.5209 0
M  V30 118 H 5.6543 -8.3847 6.1432 0
M  V30 119 H 7.2801 -7.1273 4.7917 0
M  V30 120 H 7.4513 -3.6042 1.6163 0
M  V30 121 C 10.1957 -1.1974 -1.9544 0
M  V30 122 C 10.3577 -1.4587 -3.3063 0
M  V30 123 C 9.3118 -2.0433 -4.0025 0
M  V30 124 C 8.1332 -2.3437 -3.3180 0
M  V30 125 C 7.0051 -2.9720 -4.0732 0
M  V30 126 O 5.9208 -3.1056 -3.2967 0
M  V30 127 C 4.7419 -3.6462 -3.8121 0
M  V30 128 C 4.0861 -4.5693 -3.0071 0
M  V30 129 C 2.8920 -5.1088 -3.4554 0
M  V30 130 O 2.1667 -6.0281 -2.7021 0
M  V30 131 C 2.7778 -7.0871 -2.1470 0
M  V30 132 C 1.7803 -8.0027 -1.5210 0
M  V30 133 C 0.5342 -7.5789 -1.0800 0
M  V30 134 N -0.3627 -8.4342 -0.5836 0
M  V30 135 C -0.0876 -9.7422 -0.5063 0
M  V30 136 C -1.1532 -10.6512 -0.0045 0
M  V30 137 C 1.1633 -10.2278 -0.8908 0
M  V30 138 C 2.1062 -9.3573 -1.3961 0
M  V30 139 O 3.9601 -7.3025 -2.1729 0
M  V30 140 C 2.3515 -4.7292 -4.6779 0
M  V30 141 C 3.0163 -3.7983 -5.4554 0
M  V30 142 C 4.2153 -3.2476 -5.0298 0
M  V30 143 O 7.0875 -3.3104 -5.2234 0
M  V30 144 C 8.0542 -2.0515 -1.9604 0
M  V30 145 N 9.0691 -1.4911 -1.3046 0
M  V30 146 H 10.9952 -0.7380 -1.3817 0
M  V30 147 H 11.2821 -1.2114 -3.8027 0
M  V30 148 H 9.3856 -2.2706 -5.0552 0
M  V30 149 H 4.5220 -4.8732 -2.0710 0
M  V30 150 H 0.2475 -6.5291 -1.1313 0
M  V30 151 H -2.1452 -10.1944 -0.1168 0
M  V30 152 H -1.1291 -11.5994 -0.5371 0
M  V30 153 H -0.9805 -10.8793 1.0484 0
M  V30 154 H 1.3796 -11.2803 -0.8007 0
M  V30 155 H 3.0791 -9.7014 -1.7117 0
M  V30 156 H 1.4298 -5.1720 -5.0164 0
M  V30 157 H 2.6040 -3.5007 -6.4061 0
M  V30 158 H 4.7325 -2.5306 -5.6455 0
M  V30 159 H 7.1551 -2.2861 -1.3922 0
M  V30 160 C -4.9930 -7.0064 0.2564 0
M  V30 161 C -6.1353 -6.2610 0.4983 0
M  V30 162 C -6.0086 -5.0341 1.1299 0
M  V30 163 C -4.7361 -4.5989 1.5000 0
M  V30 164 C -4.6141 -3.2762 2.1867 0
M  V30 165 O -3.4070 -3.1312 2.7496 0
M  V30 166 C -3.1171 -1.9866 3.4899 0
M  V30 167 C -3.3595 -0.7171 2.9905 0
M  V30 168 C -3.0263 0.3774 3.7765 0
M  V30 169 O -3.2419 1.6432 3.2293 0
M  V30 170 C -3.8497 2.5877 3.9676 0
M  V30 171 C -3.8445 3.9061 3.2725 0
M  V30 172 C -3.5766 4.0530 1.9198 0
M  V30 173 N -3.5256 5.2516 1.3341 0
M  V30 174 C -3.7029 6.3653 2.0557 0
M  V30 175 C -3.5209 7.6841 1.3925 0
M  V30 176 C -4.0190 6.2873 3.4144 0
M  V30 177 C -4.1020 5.0561 4.0274 0
M  V30 178 O -4.3227 2.4130 5.0589 0
M  V30 179 C -2.4454 0.2180 5.0249 0
M  V30 180 C -2.2092 -1.0617 5.5010 0
M  V30 181 C -2.5451 -2.1684 4.7418 0
M  V30 182 O -5.5037 -2.4688 2.2266 0
M  V30 183 C -3.6375 -5.4064 1.2159 0
M  V30 184 N -3.7754 -6.5848 0.6101 0
M  V30 185 H -5.0641 -7.9705 -0.2376 0
M  V30 186 H -7.1022 -6.6335 0.2008 0
M  V30 187 H -6.8654 -4.4125 1.3416 0
M  V30 188 H -3.8201 -0.5712 2.0280 0
M  V30 189 H -3.4027 3.1805 1.2920 0
M  V30 190 H -3.2969 7.5678 0.3256 0
M  V30 191 H -4.4068 8.3039 1.5206 0
M  V30 192 H -2.7041 8.2209 1.8751 0
M  V30 193 H -4.1867 7.1929 3.9755 0
M  V30 194 H -4.3411 4.9585 5.0751 0
M  V30 195 H -2.1904 1.0765 5.6244 0
M  V30 196 H -1.7655 -1.1930 6.4748 0
M  V30 197 H -2.3812 -3.1644 5.1173 0
M  V30 198 H -2.6310 -5.0923 1.4829 0
M  V30 199 C -2.7780 -8.3381 -2.6861 0
M  V30 200 C -3.2088 -8.2133 -3.9971 0
M  V30 201 C -3.5483 -6.9556 -4.4693 0
M  V30 202 C -3.4450 -5.8658 -3.6045 0
M  V30 203 C -3.9171 -4.5363 -4.1021 0
M  V30 204 O -4.4554 -3.8124 -3.1043 0
M  V30 205 C -5.2484 -2.7088 -3.4197 0
M  V30 206 C -5.0953 -1.5541 -2.6652 0
M  V30 207 C -5.9177 -0.4716 -2.9403 0
M  V30 208 O -5.7301 0.7132 -2.2286 0
M  V30 209 C -6.8175 1.3441 -1.7435 0
M  V30 210 C -6.5340 2.7707 -1.4193 0
M  V30 211 C -5.2646 3.2861 -1.2002 0
M  V30 212 N -5.0540 4.5950 -1.0502 0
M  V30 213 C -6.0707 5.4615 -1.1416 0
M  V30 214 C -5.7638 6.9165 -1.1049 0
M  V30 215 C -7.3817 5.0054 -1.2866 0
M  V30 216 C -7.6196 3.6543 -1.4159 0
M  V30 217 O -7.9043 0.8429 -1.6288 0
M  V30 218 C -6.8655 -0.5309 -3.9524 0
M  V30 219 C -7.0135 -1.6986 -4.6778 0
M  V30 220 C -6.2130 -2.7950 -4.4127 0
M  V30 221 O -3.8512 -4.1996 -5.2527 0
M  V30 222 C -2.9639 -6.0710 -2.3162 0
M  V30 223 N -2.6436 -7.2869 -1.8736 0
M  V30 224 H -2.5312 -9.3154 -2.2851 0
M  V30 225 H -3.2881 -9.0819 -4.6306 0
M  V30 226 H -3.8983 -6.8064 -5.4793 0
M  V30 227 H -4.3606 -1.5024 -1.8798 0
M  V30 228 H -4.3983 2.6299 -1.1586 0
M  V30 229 H -4.6946 7.0987 -1.2898 0
M  V30 230 H -6.3548 7.4407 -1.8537 0
M  V30 231 H -6.0498 7.3325 -0.1386 0
M  V30 232 H -8.1955 5.7123 -1.3159 0
M  V30 233 H -8.6177 3.2654 -1.5465 0
M  V30 234 H -7.4896 0.3217 -4.1677 0
M  V30 235 H -7.7585 -1.7551 -5.4550 0
M  V30 236 H -6.3402 -3.7028 -4.9797 0
M  V30 237 H -2.8315 -5.2334 -1.6389 0
M  V30 END ATOM
M  V30 BEGIN BOND
M  V30 1 2 4 5
M  V30 2 1 5 6
M  V30 3 2 6 7
M  V30 4 1 7 8
M  V30 5 1 8 9
M  V30 6 1 9 10
M  V30 7 2 10 11
M  V30 8 1 11 12
M  V30 9 1 12 13
M  V30 10 1 13 14
M  V30 11 1 14 15
M  V30 12 2 15 16
M  V30 13 1 16 17
M  V30 14 2 17 18
M  V30 15 1 18 19
M  V30 16 1 18 20
M  V30 17 2 20 21
M  V30 18 2 14 22
M  V30 19 2 12 23
M  V30 20 1 23 24
M  V30 21 2 24 25
M  V30 22 2 8 26
M  V30 23 1 7 27
M  V30 24 2 27 28
M  V30 25 1 28 4
M  V30 26 1 25 10
M  V30 27 1 21 15
M  V30 28 1 4 29
M  V30 29 1 5 30
M  V30 30 1 6 31
M  V30 31 1 11 32
M  V30 32 1 16 33
M  V30 33 1 19 34
M  V30 34 1 19 35
M  V30 35 1 19 36
M  V30 36 1 20 37
M  V30 37 1 21 38
M  V30 38 1 23 39
M  V30 39 1 24 40
M  V30 40 1 25 41
M  V30 41 1 27 42
M  V30 42 2 43 44
M  V30 43 1 44 45
M  V30 44 2 45 46
M  V30 45 1 46 47
M  V30 46 1 47 48
M  V30 47 1 48 49
M  V30 48 2 49 50
M  V30 49 1 50 51
M  V30 50 1 51 52
M  V30 51 1 52 53
M  V30 52 1 53 54
M  V30 53 2 54 55
M  V30 54 1 55 56
M  V30 55 2 56 57
M  V30 56 1 57 58
M  V30 57 1 57 59
M  V30 58 2 59 60
M  V30 59 2 53 61
M  V30 60 2 51 62
M  V30 61 1 62 63
M  V30 62 2 63 64
M  V30 63 2 47 65
M  V30 64 1 46 66
M  V30 65 2 66 67
M  V30 66 1 67 43
M  V30 67 1 64 49
M  V30 68 1 60 54
M  V30 69 1 43 68
M  V30 70 1 44 69
M  V30 71 1 45 70
M  V30 72 1 50 71
M  V30 73 1 55 72
M  V30 74 1 58 73
M  V30 75 1 58 74
M  V30 76 1 58 75
M  V30 77 1 59 76
M  V30 78 1 60 77
M  V30 79 1 62 78
M  V30 80 1 63 79
M  V30 81 1 64 80
M  V30 82 1 66 81
M  V30 83 2 82 83
M  V30 84 1 83 84
M  V30 85 2 84 85
M  V30 86 1 85 86
M  V30 87 1 86 87
M  V30 88 1 87 88
M  V30 89 2 88 89
M  V30 90 1 89 90
M  V30 91 1 90 91
M  V30 92 1 91 92
M  V30 93 1 92 93
M  V30 94 2 93 94
M  V30 95 1 94 95
M  V30 96 2 95 96
M  V30 97 1 96 97
M  V30 98 1 96 98
M  V30 99 2 98 99
M  V30 100 2 92 100
M  V30 101 2 90 101
M  V30 102 1 101 102
M  V30 103 2 102 103
M  V30 104 2 86 104
M  V30 105 1 85 105
M  V30 106 2 105 106
M  V30 107 1 106 82
M  V30 108 1 103 88
M  V30 109 1 99 93
M  V30 110 1 82 107
M  V30 111 1 83 108
M  V30 112 1 84 109
M  V30 113 1 89 110
M  V30 114 1 94 111
M  V30 115 1 97 112
M  V30 116 1 97 113
M  V30 117 1 97 114
M  V30 118 1 98 115
M  V30 119 1 99 116
M  V30 120 1 101 117
M  V30 121 1 102 118
M  V30 122 1 103 119
M  V30 123 1 105 120
M  V30 124 2 121 122
M  V30 125 1 122 123
M  V30 126 2 123 124
M  V30 127 1 124 125
M  V30 128 1 125 126
M  V30 129 1 126 127
M  V30 130 2 127 128
M  V30 131 1 128 129
M  V30 132 1 129 130
M  V30 133 1 130 131
M  V30 134 1 131 132
M  V30 135 2 132 133
M  V30 136 1 133 134
M  V30 137 2 134 135
M  V30 138 1 135 136
M  V30 139 1 135 137
M  V30 140 2 137 138
M  V30 141 2 131 139
M  V30 142 2 129 140
M  V30 143 1 140 141
M  V30 144 2 141 142
M  V30 145 2 125 143
M  V30 146 1 124 144
M  V30 147 2 144 145
M  V30 148 1 145 121
M  V30 149 1 142 127
M  V30 150 1 138 132
M  V30 151 1 121 146
M  V30 152 1 122 147
M  V30 153 1 123 148
M  V30 154 1 128 149
M  V30 155 1 133 150
M  V30 156 1 136 151
M  V30 157 1 136 152
M  V30 158 1 136 153
M  V30 159 1 137 154
M  V30 160 1 138 155
M  V30 161 1 140 156
M  V30 162 1 141 157
M  V30 163 1 142 158
M  V30 164 1 144 159
M  V30 165 2 160 161
M  V30 166 1 161 162
M  V30 167 2 162 163
M  V30 168 1 163 164
M  V30 169 1 164 165
M  V30 170 1 165 166
M  V30 171 2 166 167
M  V30 172 1 167 168
M  V30 173 1 168 169
M  V30 174 1 169 170
M  V30 175 1 170 171
M  V30 176 2 171 172
M  V30 177 1 172 173
M  V30 178 2 173 174
M  V30 179 1 174 175
M  V30 180 1 174 176
M  V30 181 2 176 177
M  V30 182 2 170 178
M  V30 183 2 168 179
M  V30 184 1 179 180
M  V30 185 2 180 181
M  V30 186 2 164 182
M  V30 187 1 163 183
M  V30 188 2 183 184
M  V30 189 1 184 160
M  V30 190 1 181 166
M  V30 191 1 177 171
M  V30 192 1 160 185
M  V30 193 1 161 186
M  V30 194 1 162 187
M  V30 195 1 167 188
M  V30 196 1 172 189
M  V30 197 1 175 190
M  V30 198 1 175 191
M  V30 199 1 175 192
M  V30 200 1 176 193
M  V30 201 1 177 194
M  V30 202 1 179 195
M  V30 203 1 180 196
M  V30 204 1 181 197
M  V30 205 1 183 198
M  V30 206 2 199 200
M  V30 207 1 200 201
M  V30 208 2 201 202
M  V30 209 1 202 203
M  V30 210 1 203 204
M  V30 211 1 204 205
M  V30 212 2 205 206
M  V30 213 1 206 207
M  V30 214 1 207 208
M  V30 215 1 208 209
M  V30 216 1 209 210
M  V30 217 2 210 211
M  V30 218 1 211 212
M  V30 219 2 212 213
M  V30 220 1 213 214
M  V30 221 1 213 215
M  V30 222 2 215 216
M  V30 223 2 209 217
M  V30 224 2 207 218
M  V30 225 1 218 219
M  V30 226 2 219 220
M  V30 227 2 203 221
M  V30 228 1 202 222
M  V30 229 2 222 223
M  V30 230 1 223 199
M  V30 231 1 220 205
M  V30 232 1 216 210
M  V30 233 1 199 224
M  V30 234 1 200 225
M  V30 235 1 201 226
M  V30 236 1 206 227
M  V30 237 1 211 228
M  V30 238 1 214 229
M  V30 239 1 214 230
M  V30 240 1 214 231
M  V30 241 1 215 232
M  V30 242 1 216 233
M  V30 243 1 218 234
M  V30 244 1 219 235
M  V30 245 1 220 236
M  V30 246 1 222 237
M  V30 247 9 17 1
M  V30 248 9 56 1
M  V30 249 9 106 1
M  V30 250 9 145 1
M  V30 251 9 95 2
M  V30 252 9 134 2
M  V30 253 9 184 2
M  V30 254 9 223 2
M  V30 255 9 28 3
M  V30 256 9 67 3
M  V30 257 9 173 3
M  V30 258 9 212 3
M  V30 END BOND
M  V30 END CTAB
M  END

$$$$
