
     RDKit          3D

  0  0  0  0  0  0  0  0  0  0999 V3000
M  V30 BEGIN CTAB
M  V30 COUNTS 119 128 0 0 0
M  V30 BEGIN ATOM
M  V30 1 Pd -0.0986 2.9657 0.1111 0 CHG=2
M  V30 2 Pd 0.1150 -2.9653 -0.1122 0 CHG=2
M  V30 3 C 3.0931 4.2406 2.6058 0
M  V30 4 C 4.0968 3.3172 2.3625 0
M  V30 5 C 3.8386 2.2579 1.4971 0
M  V30 6 C 4.9014 1.2437 1.1943 0
M  V30 7 O 4.2999 0.0708 0.6571 0
M  V30 8 C 4.9474 -0.6036 -0.2949 0
M  V30 9 O 6.0261 -0.3004 -0.7403 0
M  V30 10 C 4.1542 -1.7883 -0.7161 0
M  V30 11 C 4.7736 -2.8386 -1.3957 0
M  V30 12 C 4.0253 -3.9563 -1.7025 0
M  V30 13 C 2.6806 -4.0152 -1.3335 0
M  V30 14 C 1.8829 -5.2484 -1.5875 0
M  V30 15 N 2.0895 -2.9737 -0.7313 0
M  V30 16 C 2.7994 -1.8917 -0.4268 0
M  V30 17 C 2.5797 2.1777 0.9120 0
M  V30 18 N 1.6270 3.0756 1.1394 0
M  V30 19 C 1.8708 4.0884 1.9723 0
M  V30 20 H 3.2577 5.0709 3.2731 0
M  V30 21 H 5.0624 3.4156 2.8340 0
M  V30 22 H 5.6281 1.6425 0.4731 0
M  V30 23 H 5.4475 0.9755 2.1055 0
M  V30 24 H 5.8200 -2.7678 -1.6496 0
M  V30 25 H 4.4745 -4.7948 -2.2105 0
M  V30 26 H 0.9395 -5.2258 -1.0310 0
M  V30 27 H 2.4549 -6.1304 -1.3055 0
M  V30 28 H 1.6660 -5.3403 -2.6518 0
M  V30 29 H 2.2615 -1.0847 0.0624 0
M  V30 30 H 2.3254 1.3590 0.2478 0
M  V30 31 H 1.0743 4.8031 2.1441 0
M  V30 32 C 1.8648 -4.2934 3.5225 0
M  V30 33 C 1.4220 -3.3760 4.4614 0
M  V30 34 C 0.6404 -2.3053 4.0366 0
M  V30 35 C 0.1278 -1.2969 5.0216 0
M  V30 36 O -0.2596 -0.1133 4.3324 0
M  V30 37 C -1.3236 0.5637 4.7685 0
M  V30 38 O -1.9922 0.2543 5.7229 0
M  V30 39 C -1.5563 1.7601 3.9172 0
M  V30 40 C -2.3437 2.8116 4.3893 0
M  V30 41 C -2.4747 3.9393 3.6053 0
M  V30 42 C -1.8274 4.0065 2.3706 0
M  V30 43 C -1.8953 5.2495 1.5510 0
M  V30 44 N -1.1220 2.9640 1.9096 0
M  V30 45 C -0.9842 1.8727 2.6562 0
M  V30 46 C 0.3365 -2.2082 2.6831 0
M  V30 47 N 0.7532 -3.1004 1.7910 0
M  V30 48 C 1.5066 -4.1240 2.1953 0
M  V30 49 H 2.4747 -5.1322 3.8162 0
M  V30 50 H 1.6768 -3.4877 5.5040 0
M  V30 51 H -0.7343 -1.6943 5.5747 0
M  V30 52 H 0.9049 -1.0429 5.7511 0
M  V30 53 H -2.8153 2.7339 5.3567 0
M  V30 54 H -3.0597 4.7790 3.9454 0
M  V30 55 H -1.7305 6.1230 2.1793 0
M  V30 56 H -2.8893 5.3569 1.1165 0
M  V30 57 H -1.1532 5.2282 0.7453 0
M  V30 58 H -0.3982 1.0656 2.2260 0
M  V30 59 H -0.2516 -1.3804 2.3023 0
M  V30 60 H 1.8375 -4.8338 1.4459 0
M  V30 61 C -3.3810 4.1899 -2.2894 0
M  V30 62 C -4.3155 3.1819 -2.1168 0
M  V30 63 C -3.9796 2.0826 -1.3317 0
M  V30 64 C -4.9664 0.9758 -1.1063 0
M  V30 65 O -4.2807 -0.1885 -0.6587 0
M  V30 66 C -4.8736 -0.9763 0.2403 0
M  V30 67 O -5.9684 -0.7844 0.7076 0
M  V30 68 C -3.9963 -2.1300 0.5712 0
M  V30 69 C -4.5366 -3.2706 1.1676 0
M  V30 70 C -3.7092 -4.3521 1.3894 0
M  V30 71 C -2.3651 -4.2863 1.0194 0
M  V30 72 C -1.4805 -5.4751 1.1800 0
M  V30 73 N -1.8521 -3.1623 0.4996 0
M  V30 74 C -2.6386 -2.1139 0.2771 0
M  V30 75 C -2.7160 2.0492 -0.7520 0
M  V30 76 N -1.8305 3.0271 -0.9107 0
M  V30 77 C -2.1487 4.0788 -1.6668 0
M  V30 78 H -3.6067 5.0534 -2.8937 0
M  V30 79 H -5.2874 3.2458 -2.5813 0
M  V30 80 H -5.7158 1.2668 -0.3575 0
M  V30 81 H -5.4967 0.7386 -2.0354 0
M  V30 82 H -5.5843 -3.2943 1.4245 0
M  V30 83 H -4.0955 -5.2570 1.8310 0
M  V30 84 H -0.5424 -5.3421 0.6298 0
M  V30 85 H -1.9885 -6.3714 0.8289 0
M  V30 86 H -1.2550 -5.6333 2.2347 0
M  V30 87 H -2.1616 -1.2356 -0.1484 0
M  V30 88 H -2.4017 1.2039 -0.1497 0
M  V30 89 H -1.4058 4.8593 -1.7838 0
M  V30 90 C -1.5475 -4.1359 -3.8408 0
M  V30 91 C -1.1726 -3.1218 -4.7070 0
M  V30 92 C -0.4663 -2.0341 -4.2012 0
M  V30 93 C -0.0278 -0.9214 -5.1063 0
M  V30 94 O 0.2750 0.2321 -4.3292 0
M  V30 95 C 1.2874 1.0139 -4.7092 0
M  V30 96 O 1.9752 0.8253 -5.6813 0
M  V30 97 C 1.4350 2.1566 -3.7697 0
M  V30 98 C 2.1436 3.2946 -4.1588 0
M  V30 99 C 2.1940 4.3670 -3.2922 0
M  V30 100 C 1.5454 4.2947 -2.0585 0
M  V30 101 C 1.5242 5.4747 -1.1482 0
M  V30 102 N 0.9179 3.1725 -1.6794 0
M  V30 103 C 0.8583 2.1330 -2.5060 0
M  V30 104 C -0.1662 -2.0180 -2.8435 0
M  V30 105 N -0.5171 -3.0015 -2.0218 0
M  V30 106 C -1.1982 -4.0420 -2.5037 0
M  V30 107 H -2.0981 -4.9908 -4.1982 0
M  V30 108 H -1.4221 -3.1722 -5.7556 0
M  V30 109 H 0.8599 -1.2141 -5.6838 0
M  V30 110 H -0.8218 -0.6696 -5.8182 0
M  V30 111 H 2.6183 3.3238 -5.1274 0
M  V30 112 H 2.7161 5.2699 -3.5663 0
M  V30 113 H 1.2962 6.3785 -1.7104 0
M  V30 114 H 2.5083 5.6207 -0.7025 0
M  V30 115 H 0.7863 5.3398 -0.3497 0
M  V30 116 H 0.3328 1.2558 -2.1395 0
M  V30 117 H 0.3637 -1.1820 -2.4001 0
M  V30 118 H -1.4764 -4.8275 -1.8106 0
M  V30 119 Cl 0.0082 0.0001 -0.0006 0
M  V30 END ATOM
M  V30 BEGIN BOND
M  V30 1 2 3 4
M  V30 2 1 4 5
M  V30 3 1 5 6
M  V30 4 1 6 7
M  V30 5 1 7 8
M  V30 6 2 8 9
M  V30 7 1 8 10
M  V30 8 2 10 11
M  V30 9 1 11 12
M  V30 10 2 12 13
M  V30 11 1 13 14
M  V30 12 1 13 15
M  V30 13 2 15 16
M  V30 14 2 5 17
M  V30 15 1 17 18
M  V30 16 2 18 19
M  V30 17 1 19 3
M  V30 18 1 16 10
M  V30 19 1 3 20
M  V30 20 1 4 21
M  V30 21 1 6 22
M  V30 22 1 6 23
M  V30 23 1 11 24
M  V30 24 1 12 25
M  V30 25 1 14 26
M  V30 26 1 14 27
M  V30 27 1 14 28
M  V30 28 1 16 29
M  V30 29 1 17 30
M  V30 30 1 19 31
M  V30 31 2 32 33
M  V30 32 1 33 34
M  V30 33 1 34 35
M  V30 34 1 35 36
M  V30 35 1 36 37
M  V30 36 2 37 38
M  V30 37 1 37 39
M  V30 38 2 39 40
M  V30 39 1 40 41
M  V30 40 2 41 42
M  V30 41 1 42 43
M  V30 42 1 42 44
M  V30 43 2 44 45
M  V30 44 2 34 46
M  V30 45 1 46 47
M  V30 46 2 47 48
M  V30 47 1 48 32
M  V30 48 1 45 39
M  V30 49 1 32 49
M  V30 50 1 33 50
M  V30 51 1 35 51
M  V30 52 1 35 52
M  V30 53 1 40 53
M  V30 54 1 41 54
M  V30 55 1 43 55
M  V30 56 1 43 56
M  V30 57 1 43 57
M  V30 58 1 45 58
M  V30 59 1 46 59
M  V30 60 1 48 60
M  V30 61 2 61 62
M  V30 62 1 62 63
M  V30 63 1 63 64
M  V30 64 1 64 65
M  V30 65 1 65 66
M  V30 66 2 66 67
M  V30 67 1 66 68
M  V30 68 2 68 69
M  V30 69 1 69 70
M  V30 70 2 70 71
M  V30 71 1 71 72
M  V30 72 1 71 73
M  V30 73 2 73 74
M  V30 74 2 63 75
M  V30 75 1 75 76
M  V30 76 2 76 77
M  V30 77 1 77 61
M  V30 78 1 74 68
M  V30 79 1 61 78
M  V30 80 1 62 79
M  V30 81 1 64 80
M  V30 82 1 64 81
M  V30 83 1 69 82
M  V30 84 1 70 83
M  V30 85 1 72 84
M  V30 86 1 72 85
M  V30 87 1 72 86
M  V30 88 1 74 87
M  V30 89 1 75 88
M  V30 90 1 77 89
M  V30 91 2 90 91
M  V30 92 1 91 92
M  V30 93 1 92 93
M  V30 94 1 93 94
M  V30 95 1 94 95
M  V30 96 2 95 96
M  V30 97 1 95 97
M  V30 98 2 97 98
M  V30 99 1 98 99
M  V30 100 2 99 100
M  V30 101 1 100 101
M  V30 102 1 100 102
M  V30 103 2 102 103
M  V30 104 2 92 104
M  V30 105 1 104 105
M  V30 106 2 105 106
M  V30 107 1 106 90
M  V30 108 1 103 97
M  V30 109 1 90 107
M  V30 110 1 91 108
M  V30 111 1 93 109
M  V30 112 1 93 110
M  V30 113 1 98 111
M  V30 114 1 99 112
M  V30 115 1 101 113
M  V30 116 1 101 114
M  V30 117 1 101 115
M  V30 118 1 103 116
M  V30 119 1 104 117
M  V30 120 1 106 118
M  V30 121 9 18 1
M  V30 122 9 44 1
M  V30 123 9 76 1
M  V30 124 9 102 1
M  V30 125 9 15 2
M  V30 126 9 47 2
M  V30 127 9 73 2
M  V30 128 9 105 2
M  V30 END BOND
M  V30 END CTAB
M  END

$$$$
