
     RDKit          3D

  0  0  0  0  0  0  0  0  0  0999 V3000
M  V30 BEGIN CTAB
M  V30 COUNTS 119 128 0 0 0
M  V30 BEGIN ATOM
M  V30 1 Pd -0.0389 2.8258 0.0206 0 CHG=2
M  V30 2 Pd 0.0102 -3.0785 -0.0680 0 CHG=2
M  V30 3 C 3.3883 4.0679 -2.1812 0
M  V30 4 C 4.3400 3.1092 -1.8734 0
M  V30 5 C 3.9767 2.0384 -1.0613 0
M  V30 6 C 4.9822 0.9858 -0.6985 0
M  V30 7 O 4.2961 -0.1885 -0.2772 0
M  V30 8 C 4.9158 -1.0328 0.5485 0
M  V30 9 O 6.0303 -0.8769 0.9810 0
M  V30 10 C 4.0372 -2.1953 0.8463 0
M  V30 11 C 4.5528 -3.3387 1.4575 0
M  V30 12 C 3.7155 -4.4211 1.6411 0
M  V30 13 C 2.3878 -4.3543 1.2175 0
M  V30 14 C 1.4904 -5.5403 1.3361 0
M  V30 15 N 1.8973 -3.2274 0.6823 0
M  V30 16 C 2.6931 -2.1810 0.4956 0
M  V30 17 C 2.6694 1.9836 -0.5884 0
M  V30 18 N 1.7703 2.9216 -0.8681 0
M  V30 19 C 2.1130 3.9417 -1.6559 0
M  V30 20 H 3.6336 4.9053 -2.8138 0
M  V30 21 H 5.3455 3.1884 -2.2569 0
M  V30 22 H 5.6148 0.7428 -1.5600 0
M  V30 23 H 5.6430 1.3330 0.1073 0
M  V30 24 H 5.5895 -3.3657 1.7553 0
M  V30 25 H 4.0843 -5.3279 2.0935 0
M  V30 26 H 0.6151 -5.4372 0.6820 0
M  V30 27 H 1.1514 -5.6487 2.3672 0
M  V30 28 H 2.0331 -6.4489 1.0834 0
M  V30 29 H 2.2438 -1.2997 0.0468 0
M  V30 30 H 2.3295 1.1559 0.0241 0
M  V30 31 H 1.3576 4.6865 -1.8771 0
M  V30 32 C -2.0974 -4.3873 3.3730 0
M  V30 33 C -1.8453 -3.4220 4.3336 0
M  V30 34 C -1.0626 -2.3241 3.9893 0
M  V30 35 C -0.7582 -1.2577 5.0004 0
M  V30 36 O -0.2957 -0.0836 4.3448 0
M  V30 37 C 0.8511 0.4714 4.7479 0
M  V30 38 O 1.5209 0.0772 5.6694 0
M  V30 39 C 1.1791 1.6455 3.8989 0
M  V30 40 C 2.0604 2.6218 4.3670 0
M  V30 41 C 2.3026 3.7217 3.5711 0
M  V30 42 C 1.6789 3.8336 2.3270 0
M  V30 43 C 1.8943 5.0578 1.5038 0
M  V30 44 N 0.8718 2.8629 1.8737 0
M  V30 45 C 0.6237 1.8012 2.6348 0
M  V30 46 C -0.5685 -2.2485 2.6918 0
M  V30 47 N -0.8133 -3.1776 1.7745 0
M  V30 48 C -1.5633 -4.2306 2.1048 0
M  V30 49 H -2.6985 -5.2517 3.6037 0
M  V30 50 H -2.2460 -3.5175 5.3308 0
M  V30 51 H -1.6593 -1.0010 5.5671 0
M  V30 52 H 0.0076 -1.6033 5.7084 0
M  V30 53 H 2.5183 2.5087 5.3374 0
M  V30 54 H 2.9625 4.5060 3.9063 0
M  V30 55 H 1.2477 5.0705 0.6220 0
M  V30 56 H 2.9342 5.1141 1.1837 0
M  V30 57 H 1.7054 5.9451 2.1065 0
M  V30 58 H -0.0330 1.0483 2.2113 0
M  V30 59 H 0.0371 -1.4050 2.3807 0
M  V30 60 H -1.7504 -4.9787 1.3427 0
M  V30 61 C -3.4808 -4.6364 -1.8277 0
M  V30 62 C -4.3699 -3.5748 -1.8792 0
M  V30 63 C -3.9536 -2.3262 -1.4256 0
M  V30 64 C -4.8864 -1.1485 -1.4540 0
M  V30 65 O -4.2895 -0.0129 -0.8400 0
M  V30 66 C -4.7451 0.3727 0.3584 0
M  V30 67 O -5.6765 -0.1308 0.9342 0
M  V30 68 C -3.9484 1.5150 0.8752 0
M  V30 69 C -4.5035 2.3849 1.8158 0
M  V30 70 C -3.7471 3.4560 2.2409 0
M  V30 71 C -2.4585 3.6466 1.7366 0
M  V30 72 C -1.6711 4.8375 2.1560 0
M  V30 73 N -1.9236 2.7771 0.8683 0
M  V30 74 C -2.6465 1.7414 0.4477 0
M  V30 75 C -2.6567 -2.2023 -0.9426 0
M  V30 76 N -1.8162 -3.2280 -0.8837 0
M  V30 77 C -2.2109 -4.4259 -1.3155 0
M  V30 78 H -3.7714 -5.6155 -2.1723 0
M  V30 79 H -5.3694 -3.7115 -2.2619 0
M  V30 80 H -5.1194 -0.8722 -2.4869 0
M  V30 81 H -5.8213 -1.3956 -0.9358 0
M  V30 82 H -5.5058 2.2161 2.1777 0
M  V30 83 H -4.1456 4.1603 2.9539 0
M  V30 84 H -1.3616 4.7308 3.1953 0
M  V30 85 H -2.2870 5.7329 2.1008 0
M  V30 86 H -0.7884 4.9608 1.5293 0
M  V30 87 H -2.1588 1.0610 -0.2424 0
M  V30 88 H -2.2784 -1.2484 -0.5915 0
M  V30 89 H -1.4969 -5.2425 -1.2591 0
M  V30 90 C 1.5846 -4.5976 -3.6744 0
M  V30 91 C 1.4857 -3.5361 -4.5585 0
M  V30 92 C 1.0229 -2.3097 -4.0879 0
M  V30 93 C 0.8940 -1.1375 -5.0168 0
M  V30 94 O 0.3949 -0.0008 -4.3222 0
M  V30 95 C -0.6708 0.6378 -4.8158 0
M  V30 96 O -1.2446 0.3379 -5.8324 0
M  V30 97 C -1.0284 1.7879 -3.9440 0
M  V30 98 C -1.7501 2.8625 -4.4676 0
M  V30 99 C -1.9882 3.9558 -3.6595 0
M  V30 100 C -1.5039 3.9689 -2.3509 0
M  V30 101 C -1.6660 5.1674 -1.4822 0
M  V30 102 N -0.8654 2.9036 -1.8498 0
M  V30 103 C -0.6312 1.8413 -2.6137 0
M  V30 104 C 0.6816 -2.2084 -2.7451 0
M  V30 105 N 0.7662 -3.2370 -1.9077 0
M  V30 106 C 1.2073 -4.4119 -2.3538 0
M  V30 107 H 1.9412 -5.5595 -4.0053 0
M  V30 108 H 1.7602 -3.6557 -5.5952 0
M  V30 109 H 1.8744 -0.8767 -5.4316 0
M  V30 110 H 0.2219 -1.3793 -5.8501 0
M  V30 111 H -2.0889 2.8309 -5.4916 0
M  V30 112 H -2.5273 4.8097 -4.0376 0
M  V30 113 H -1.6008 6.0792 -2.0710 0
M  V30 114 H -0.9016 5.1774 -0.6963 0
M  V30 115 H -2.6514 5.1566 -1.0152 0
M  V30 116 H -0.1139 1.0143 -2.1341 0
M  V30 117 H 0.3352 -1.2686 -2.3267 0
M  V30 118 H 1.2709 -5.2300 -1.6451 0
M  V30 119 Cl 0.0073 -0.2639 -0.0024 0
M  V30 END ATOM
M  V30 BEGIN BOND
M  V30 1 2 3 4
M  V30 2 1 4 5
M  V30 3 1 5 6
M  V30 4 1 6 7
M  V30 5 1 7 8
M  V30 6 2 8 9
M  V30 7 1 8 10
M  V30 8 2 10 11
M  V30 9 1 11 12
M  V30 10 2 12 13
M  V30 11 1 13 14
M  V30 12 1 13 15
M  V30 13 2 15 16
M  V30 14 2 5 17
M  V30 15 1 17 18
M  V30 16 2 18 19
M  V30 17 1 19 3
M  V30 18 1 16 10
M  V30 19 1 3 20
M  V30 20 1 4 21
M  V30 21 1 6 22
M  V30 22 1 6 23
M  V30 23 1 11 24
M  V30 24 1 12 25
M  V30 25 1 14 26
M  V30 26 1 14 27
M  V30 27 1 14 28
M  V30 28 1 16 29
M  V30 29 1 17 30
M  V30 30 1 19 31
M  V30 31 2 32 33
M  V30 32 1 33 34
M  V30 33 1 34 35
M  V30 34 1 35 36
M  V30 35 1 36 37
M  V30 36 2 37 38
M  V30 37 1 37 39
M  V30 38 2 39 40
M  V30 39 1 40 41
M  V30 40 2 41 42
M  V30 41 1 42 43
M  V30 42 1 42 44
M  V30 43 2 44 45
M  V30 44 2 34 46
M  V30 45 1 46 47
M  V30 46 2 47 48
M  V30 47 1 48 32
M  V30 48 1 45 39
M  V30 49 1 32 49
M  V30 50 1 33 50
M  V30 51 1 35 51
M  V30 52 1 35 52
M  V30 53 1 40 53
M  V30 54 1 41 54
M  V30 55 1 43 55
M  V30 56 1 43 56
M  V30 57 1 43 57
M  V30 58 1 45 58
M  V30 59 1 46 59
M  V30 60 1 48 60
M  V30 61 2 61 62
M  V30 62 1 62 63
M  V30 63 1 63 64
M  V30 64 1 64 65
M  V30 65 1 65 66
M  V30 66 2 66 67
M  V30 67 1 66 68
M  V30 68 2 68 69
M  V30 69 1 69 70
M  V30 70 2 70 71
M  V30 71 1 71 72
M  V30 72 1 71 73
M  V30 73 2 73 74
M  V30 74 2 63 75
M  V30 75 1 75 76
M  V30 76 2 76 77
M  V30 77 1 77 61
M  V30 78 1 74 68
M  V30 79 1 61 78
M  V30 80 1 62 79
M  V30 81 1 64 80
M  V30 82 1 64 81
M  V30 83 1 69 82
M  V30 84 1 70 83
M  V30 85 1 72 84
M  V30 86 1 72 85
M  V30 87 1 72 86
M  V30 88 1 74 87
M  V30 89 1 75 88
M  V30 90 1 77 89
M  V30 91 2 90 91
M  V30 92 1 91 92
M  V30 93 1 92 93
M  V30 94 1 93 94
M  V30 95 1 94 95
M  V30 96 2 95 96
M  V30 97 1 95 97
M  V30 98 2 97 98
M  V30 99 1 98 99
M  V30 100 2 99 100
M  V30 101 1 100 101
M  V30 102 1 100 102
M  V30 103 2 102 103
M  V30 104 2 92 104
M  V30 105 1 104 105
M  V30 106 2 105 106
M  V30 107 1 106 90
M  V30 108 1 103 97
M  V30 109 1 90 107
M  V30 110 1 91 108
M  V30 111 1 93 109
M  V30 112 1 93 110
M  V30 113 1 98 111
M  V30 114 1 99 112
M  V30 115 1 101 113
M  V30 116 1 101 114
M  V30 117 1 101 115
M  V30 118 1 103 116
M  V30 119 1 104 117
M  V30 120 1 106 118
M  V30 121 9 18 1
M  V30 122 9 44 1
M  V30 123 9 73 1
M  V30 124 9 102 1
M  V30 125 9 15 2
M  V30 126 9 47 2
M  V30 127 9 76 2
M  V30 128 9 105 2
M  V30 END BOND
M  V30 END CTAB
M  END

$$$$
