
     RDKit          3D

  0  0  0  0  0  0  0  0  0  0999 V3000
M  V30 BEGIN CTAB
M  V30 COUNTS 129 136 0 0 0
M  V30 BEGIN ATOM
M  V30 1 Pd -0.2419 2.9900 -0.1176 0 CHG=2
M  V30 2 Pd 0.2179 -2.9871 0.1372 0 CHG=2
M  V30 3 C 2.9459 3.7215 -2.8867 0
M  V30 4 C 4.0044 2.9910 -2.3767 0
M  V30 5 C 3.7901 2.2099 -1.2467 0
M  V30 6 C 4.8806 1.3646 -0.6527 0
M  V30 7 O 4.2965 0.1706 -0.1360 0
M  V30 8 C 4.7928 -0.3611 0.9818 0
M  V30 9 O 5.7454 0.0681 1.5848 0
M  V30 10 C 4.0110 -1.5640 1.3722 0
M  V30 11 C 4.5662 -2.5245 2.2179 0
M  V30 12 C 3.8211 -3.6484 2.5092 0
M  V30 13 C 2.5515 -3.8107 1.9513 0
M  V30 14 C 1.7602 -5.0435 2.2089 0
M  V30 15 N 2.0182 -2.8611 1.1701 0
M  V30 16 C 2.7220 -1.7663 0.8942 0
M  V30 17 C 2.5276 2.2256 -0.6683 0
M  V30 18 N 1.5191 2.9466 -1.1483 0
M  V30 19 C 1.7178 3.6664 -2.2485 0
M  V30 20 H 3.0639 4.3443 -3.7578 0
M  V30 21 H 4.9755 3.0265 -2.8458 0
M  V30 22 H 5.6206 1.0959 -1.4131 0
M  V30 23 H 5.3973 1.8954 0.1576 0
M  V30 24 H 5.5595 -2.3805 2.6141 0
M  V30 25 H 4.2175 -4.4174 3.1525 0
M  V30 26 H 2.4159 -5.8768 2.4456 0
M  V30 27 H 1.1680 -5.2957 1.3281 0
M  V30 28 H 1.0922 -4.8908 3.0567 0
M  V30 29 H 2.2380 -1.0132 0.2796 0
M  V30 30 H 2.3213 1.6157 0.2036 0
M  V30 31 H 0.8914 4.2531 -2.6259 0
M  V30 32 C 2.1179 4.1769 3.2679 0
M  V30 33 C 1.7582 3.2734 4.2521 0
M  V30 34 C 0.8884 2.2376 3.9216 0
M  V30 35 C 0.4862 1.2196 4.9501 0
M  V30 36 O 0.1117 0.0110 4.2981 0
M  V30 37 C -0.9069 -0.6945 4.7916 0
M  V30 38 O -1.5295 -0.4019 5.7821 0
M  V30 39 C -1.1643 -1.8931 3.9505 0
M  V30 40 C -1.9610 -2.9352 4.4284 0
M  V30 41 C -2.1529 -4.0350 3.6187 0
M  V30 42 C -1.5476 -4.0945 2.3607 0
M  V30 43 C -1.7284 -5.2981 1.5029 0
M  V30 44 N -0.7978 -3.0775 1.9129 0
M  V30 45 C -0.6184 -2.0029 2.6780 0
M  V30 46 C 0.4006 2.1766 2.6217 0
M  V30 47 N 0.7327 3.0649 1.6850 0
M  V30 48 C 1.5896 4.0363 1.9933 0
M  V30 49 H 2.8010 4.9847 3.4726 0
M  V30 50 H 2.1505 3.3632 5.2533 0
M  V30 51 H 1.3228 1.0094 5.6252 0
M  V30 52 H -0.3570 1.5803 5.5546 0
M  V30 53 H -2.4026 -2.8650 5.4104 0
M  V30 54 H -2.7603 -4.8626 3.9488 0
M  V30 55 H -2.7534 -5.3430 1.1358 0
M  V30 56 H -1.5572 -6.2037 2.0813 0
M  V30 57 H -1.0488 -5.2862 0.6492 0
M  V30 58 H -0.0362 -1.1929 2.2487 0
M  V30 59 H -0.2561 1.3705 2.3124 0
M  V30 60 H 1.8722 4.7282 1.2146 0
M  V30 61 C -3.0993 -4.2092 -2.3000 0
M  V30 62 C -4.1183 -3.3531 -1.9215 0
M  V30 63 C -3.8335 -2.3369 -1.0134 0
M  V30 64 C -4.9013 -1.3692 -0.5898 0
M  V30 65 O -4.2962 -0.1529 -0.1648 0
M  V30 66 C -4.8224 0.4962 0.8747 0
M  V30 67 O -5.8067 0.1457 1.4770 0
M  V30 68 C -4.0267 1.7132 1.1840 0
M  V30 69 C -4.5478 2.7075 2.0140 0
M  V30 70 C -3.7794 3.8273 2.2540 0
M  V30 71 C -2.5193 3.9535 1.6633 0
M  V30 72 C -1.7063 5.1790 1.8963 0
M  V30 73 N -2.0296 2.9815 0.8809 0
M  V30 74 C -2.7545 1.8880 0.6546 0
M  V30 75 C -2.5417 -2.2478 -0.5083 0
M  V30 76 N -1.5711 -3.0912 -0.8594 0
M  V30 77 C -1.8361 -4.0427 -1.7523 0
M  V30 78 H -3.2683 -4.9997 -3.0124 0
M  V30 79 H -5.1115 -3.4640 -2.3285 0
M  V30 80 H -5.5727 -1.1528 -1.4276 0
M  V30 81 H -5.5033 -1.7796 0.2321 0
M  V30 82 H -5.5301 2.5863 2.4435 0
M  V30 83 H -4.1438 4.6195 2.8884 0
M  V30 84 H -1.3472 5.1975 2.9250 0
M  V30 85 H -2.3155 6.0694 1.7553 0
M  V30 86 H -0.8484 5.2233 1.2231 0
M  V30 87 H -2.2919 1.1159 0.0469 0
M  V30 88 H -2.2677 -1.4546 0.1790 0
M  V30 89 H -1.0306 -4.6970 -2.0492 0
M  V30 90 C 3.0427 -3.5078 -3.0429 0
M  V30 91 C 2.5177 -2.7589 -4.0810 0
M  V30 92 C 1.3582 -2.0265 -3.8525 0
M  V30 93 C 0.7449 -1.1650 -4.9194 0
M  V30 94 O 0.1820 -0.0105 -4.2995 0
M  V30 95 C -0.9454 0.5034 -4.7924 0
M  V30 96 O -1.5216 0.0906 -5.7685 0
M  V30 97 C -1.3847 1.6640 -3.9733 0
M  V30 98 C -2.2538 2.6165 -4.5056 0
M  V30 99 C -2.5921 3.7021 -3.7244 0
M  V30 100 C -2.0571 3.8355 -2.4417 0
M  V30 101 C -2.3671 5.0283 -1.6089 0
M  V30 102 N -1.2513 2.8932 -1.9324 0
M  V30 103 C -0.9303 1.8345 -2.6712 0
M  V30 104 C 0.7681 -2.1071 -2.5979 0
M  V30 105 N 1.2634 -2.8456 -1.6097 0
M  V30 106 C 2.3905 -3.5189 -1.8210 0
M  V30 107 H 3.9367 -4.0946 -3.1726 0
M  V30 108 H 2.9978 -2.7432 -5.0472 0
M  V30 109 H 1.5020 -0.8449 -5.6423 0
M  V30 110 H -0.0420 -1.7051 -5.4620 0
M  V30 111 H -2.6318 2.4964 -5.5091 0
M  V30 112 H -3.2552 4.4638 -4.1020 0
M  V30 113 H -3.2135 4.8195 -0.9545 0
M  V30 114 H -2.6298 5.8755 -2.2361 0
M  V30 115 H -1.5012 5.2913 -0.9998 0
M  V30 116 H -0.2974 1.0847 -2.2061 0
M  V30 117 H -0.1269 -1.5358 -2.3804 0
M  V30 118 H 2.7800 -4.1208 -1.0114 0
M  V30 119 B 1.7641 6.4962 -0.8604 0 CHG=-1
M  V30 120 F 2.9466 5.8467 -0.5427 0
M  V30 121 F 1.6976 6.7409 -2.2127 0
M  V30 122 F 0.7029 5.6162 -0.5154 0
M  V30 123 F 1.6306 7.6477 -0.1261 0
M  V30 124 B 1.1046 -6.3942 -1.9782 0 CHG=-1
M  V30 125 F 0.4097 -7.5743 -1.8911 0
M  V30 126 F 0.7756 -5.7166 -3.1417 0
M  V30 127 F 0.7187 -5.5630 -0.8920 0
M  V30 128 F 2.4639 -6.5939 -1.9053 0
M  V30 129 Cl -0.0025 0.0018 0.0003 0
M  V30 END ATOM
M  V30 BEGIN BOND
M  V30 1 2 3 4
M  V30 2 1 4 5
M  V30 3 1 5 6
M  V30 4 1 6 7
M  V30 5 1 7 8
M  V30 6 2 8 9
M  V30 7 1 8 10
M  V30 8 2 10 11
M  V30 9 1 11 12
M  V30 10 2 12 13
M  V30 11 1 13 14
M  V30 12 1 13 15
M  V30 13 2 15 16
M  V30 14 2 5 17
M  V30 15 1 17 18
M  V30 16 2 18 19
M  V30 17 1 19 3
M  V30 18 1 16 10
M  V30 19 1 3 20
M  V30 20 1 4 21
M  V30 21 1 6 22
M  V30 22 1 6 23
M  V30 23 1 11 24
M  V30 24 1 12 25
M  V30 25 1 14 26
M  V30 26 1 14 27
M  V30 27 1 14 28
M  V30 28 1 16 29
M  V30 29 1 17 30
M  V30 30 1 19 31
M  V30 31 2 32 33
M  V30 32 1 33 34
M  V30 33 1 34 35
M  V30 34 1 35 36
M  V30 35 1 36 37
M  V30 36 2 37 38
M  V30 37 1 37 39
M  V30 38 2 39 40
M  V30 39 1 40 41
M  V30 40 2 41 42
M  V30 41 1 42 43
M  V30 42 1 42 44
M  V30 43 2 44 45
M  V30 44 2 34 46
M  V30 45 1 46 47
M  V30 46 2 47 48
M  V30 47 1 48 32
M  V30 48 1 45 39
M  V30 49 1 32 49
M  V30 50 1 33 50
M  V30 51 1 35 51
M  V30 52 1 35 52
M  V30 53 1 40 53
M  V30 54 1 41 54
M  V30 55 1 43 55
M  V30 56 1 43 56
M  V30 57 1 43 57
M  V30 58 1 45 58
M  V30 59 1 46 59
M  V30 60 1 48 60
M  V30 61 2 61 62
M  V30 62 1 62 63
M  V30 63 1 63 64
M  V30 64 1 64 65
M  V30 65 1 65 66
M  V30 66 2 66 67
M  V30 67 1 66 68
M  V30 68 2 68 69
M  V30 69 1 69 70
M  V30 70 2 70 71
M  V30 71 1 71 72
M  V30 72 1 71 73
M  V30 73 2 73 74
M  V30 74 2 63 75
M  V30 75 1 75 76
M  V30 76 2 76 77
M  V30 77 1 77 61
M  V30 78 1 74 68
M  V30 79 1 61 78
M  V30 80 1 62 79
M  V30 81 1 64 80
M  V30 82 1 64 81
M  V30 83 1 69 82
M  V30 84 1 70 83
M  V30 85 1 72 84
M  V30 86 1 72 85
M  V30 87 1 72 86
M  V30 88 1 74 87
M  V30 89 1 75 88
M  V30 90 1 77 89
M  V30 91 2 90 91
M  V30 92 1 91 92
M  V30 93 1 92 93
M  V30 94 1 93 94
M  V30 95 1 94 95
M  V30 96 2 95 96
M  V30 97 1 95 97
M  V30 98 2 97 98
M  V30 99 1 98 99
M  V30 100 2 99 100
M  V30 101 1 100 101
M  V30 102 1 100 102
M  V30 103 2 102 103
M  V30 104 2 92 104
M  V30 105 1 104 105
M  V30 106 2 105 106
M  V30 107 1 106 90
M  V30 108 1 103 97
M  V30 109 1 90 107
M  V30 110 1 91 108
M  V30 111 1 93 109
M  V30 112 1 93 110
M  V30 113 1 98 111
M  V30 114 1 99 112
M  V30 115 1 101 113
M  V30 116 1 101 114
M  V30 117 1 101 115
M  V30 118 1 103 116
M  V30 119 1 104 117
M  V30 120 1 106 118
M  V30 121 9 18 1
M  V30 122 9 47 1
M  V30 123 9 73 1
M  V30 124 9 102 1
M  V30 125 9 15 2
M  V30 126 9 44 2
M  V30 127 9 76 2
M  V30 128 9 105 2
M  V30 129 1 119 120
M  V30 130 1 119 121
M  V30 131 1 119 122
M  V30 132 1 119 123
M  V30 133 1 124 125
M  V30 134 1 124 126
M  V30 135 1 124 127
M  V30 136 1 124 128
M  V30 END BOND
M  V30 END CTAB
M  END

$$$$
