
     RDKit          3D

  0  0  0  0  0  0  0  0  0  0999 V3000
M  V30 BEGIN CTAB
M  V30 COUNTS 118 128 0 0 0
M  V30 BEGIN ATOM
M  V30 1 Pd -0.9796 3.9381 1.5884 0 CHG=2
M  V30 2 Pd -0.9103 -3.1132 1.5037 0 CHG=2
M  V30 3 C 2.7419 4.8711 -0.2500 0
M  V30 4 C 3.5501 3.8029 0.0995 0
M  V30 5 C 3.0070 2.7548 0.8431 0
M  V30 6 C 3.8897 1.6256 1.2732 0
M  V30 7 O 3.1361 0.4403 1.5401 0
M  V30 8 C 3.8666 -0.5919 1.9812 0
M  V30 9 O 5.0460 -0.5173 2.2182 0
M  V30 10 C 3.0821 -1.8494 2.1097 0
M  V30 11 C 3.7712 -3.0232 2.4364 0
M  V30 12 C 3.0809 -4.2155 2.4831 0
M  V30 13 C 1.7137 -4.2305 2.2012 0
M  V30 14 C 0.9463 -5.5083 2.1951 0
M  V30 15 N 1.0643 -3.0932 1.9236 0
M  V30 16 C 1.7171 -1.9314 1.8751 0
M  V30 17 C 1.6674 2.8313 1.2020 0
M  V30 18 N 0.9056 3.8801 0.8859 0
M  V30 19 C 1.4209 4.8776 0.1699 0
M  V30 20 H 3.1312 5.6914 -0.8306 0
M  V30 21 H 4.5875 3.7809 -0.1967 0
M  V30 22 H 4.6389 1.4062 0.5040 0
M  V30 23 H 4.4440 1.9104 2.1785 0
M  V30 24 H 4.8314 -2.9750 2.6316 0
M  V30 25 H 3.5896 -5.1358 2.7217 0
M  V30 26 H -0.0752 -5.3646 1.8066 0
M  V30 27 H 0.8998 -5.9161 3.2056 0
M  V30 28 H 1.4652 -6.2496 1.5886 0
M  V30 29 H 1.1331 -1.0469 1.6311 0
M  V30 30 H 1.2050 2.0273 1.7682 0
M  V30 31 H 0.7714 5.7081 -0.0823 0
M  V30 32 C -2.1775 -4.2596 5.3619 0
M  V30 33 C -2.1589 -3.0875 6.0964 0
M  V30 34 C -1.7515 -1.9039 5.4792 0
M  V30 35 C -1.7607 -0.6375 6.2784 0
M  V30 36 O -1.2239 0.4689 5.5554 0
M  V30 37 C -0.4331 1.3060 6.2422 0
M  V30 38 O -0.0728 1.1242 7.3770 0
M  V30 39 C -0.0787 2.5159 5.4524 0
M  V30 40 C 0.6781 3.5170 6.0716 0
M  V30 41 C 0.9469 4.6743 5.3741 0
M  V30 42 C 0.4529 4.8338 4.0769 0
M  V30 43 C 0.7142 6.0952 3.3311 0
M  V30 44 N -0.2604 3.8604 3.4945 0
M  V30 45 C -0.5151 2.7274 4.1524 0
M  V30 46 C -1.3731 -1.9558 4.1444 0
M  V30 47 N -1.3886 -3.0932 3.4475 0
M  V30 48 C -1.7859 -4.2211 4.0325 0
M  V30 49 H -2.4900 -5.1879 5.8115 0
M  V30 50 H -2.4572 -3.0844 7.1335 0
M  V30 51 H -2.7917 -0.3896 6.5605 0
M  V30 52 H -1.1872 -0.7725 7.2043 0
M  V30 53 H 1.0275 3.3679 7.0816 0
M  V30 54 H 1.5250 5.4654 5.8243 0
M  V30 55 H 0.2479 6.0919 2.3402 0
M  V30 56 H 1.7878 6.2439 3.2195 0
M  V30 57 H 0.3481 6.9476 3.9031 0
M  V30 58 H -1.0985 1.9706 3.6328 0
M  V30 59 H -1.0469 -1.0598 3.6230 0
M  V30 60 H -1.8009 -5.1244 3.4307 0
M  V30 61 C -4.7962 -4.3166 0.4537 0
M  V30 62 C -5.4858 -3.1285 0.2764 0
M  V30 63 C -4.8257 -1.9189 0.4934 0
M  V30 64 C -5.5433 -0.6208 0.2694 0
M  V30 65 O -4.8804 0.4771 0.8966 0
M  V30 66 C -5.5852 1.1840 1.7924 0
M  V30 67 O -6.6964 0.9025 2.1608 0
M  V30 68 C -4.8482 2.3930 2.2507 0
M  V30 69 C -5.5424 3.3394 3.0131 0
M  V30 70 C -4.8962 4.4989 3.3793 0
M  V30 71 C -3.5767 4.7165 2.9736 0
M  V30 72 C -2.8852 5.9818 3.3291 0
M  V30 73 N -2.9173 3.7922 2.2633 0
M  V30 74 C -3.5265 2.6543 1.9186 0
M  V30 75 C -3.4941 -1.9605 0.8829 0
M  V30 76 N -2.8415 -3.1104 1.0482 0
M  V30 77 C -3.4657 -4.2667 0.8403 0
M  V30 78 H -5.2830 -5.2649 0.2946 0
M  V30 79 H -6.5215 -3.1369 -0.0261 0
M  V30 80 H -5.5847 -0.4045 -0.8046 0
M  V30 81 H -6.5701 -0.6855 0.6464 0
M  V30 82 H -6.5681 3.1488 3.2887 0
M  V30 83 H -5.4031 5.2503 3.9634 0
M  V30 84 H -2.7443 6.0342 4.4085 0
M  V30 85 H -3.5009 6.8382 3.0590 0
M  V30 86 H -1.9163 6.0547 2.8324 0
M  V30 87 H -2.9475 1.9311 1.3480 0
M  V30 88 H -2.9379 -1.0450 1.0711 0
M  V30 89 H -2.8919 -5.1792 0.9820 0
M  V30 90 C -0.0911 -4.2685 -2.4804 0
M  V30 91 C 0.0061 -3.0673 -3.1612 0
M  V30 92 C -0.1595 -1.8723 -2.4599 0
M  V30 93 C -0.0285 -0.5667 -3.1854 0
M  V30 94 O -0.5821 0.5254 -2.4501 0
M  V30 95 C -1.4281 1.3318 -3.1074 0
M  V30 96 O -1.8348 1.1312 -4.2227 0
M  V30 97 C -1.7677 2.5450 -2.3137 0
M  V30 98 C -2.4104 3.6036 -2.9656 0
M  V30 99 C -2.6225 4.7813 -2.2808 0
M  V30 100 C -2.1891 4.8973 -0.9589 0
M  V30 101 C -2.3259 6.1739 -0.2083 0
M  V30 102 N -1.6276 3.8557 -0.3340 0
M  V30 103 C -1.4176 2.7082 -0.9810 0
M  V30 104 C -0.4103 -1.9428 -1.0967 0
M  V30 105 N -0.4989 -3.1068 -0.4507 0
M  V30 106 C -0.3488 -4.2478 -1.1180 0
M  V30 107 H 0.0270 -5.2066 -2.9977 0
M  V30 108 H 0.2039 -3.0534 -4.2219 0
M  V30 109 H 1.0334 -0.3469 -3.3514 0
M  V30 110 H -0.5193 -0.6266 -4.1636 0
M  V30 111 H -2.7067 3.4876 -3.9967 0
M  V30 112 H -3.0996 5.6191 -2.7637 0
M  V30 113 H -2.1700 7.0236 -0.8694 0
M  V30 114 H -1.6098 6.2205 0.6228 0
M  V30 115 H -3.3392 6.2650 0.1856 0
M  V30 116 H -0.9358 1.9053 -0.4264 0
M  V30 117 H -0.5477 -1.0378 -0.5088 0
M  V30 118 H -0.4370 -5.1741 -0.5594 0
M  V30 END ATOM
M  V30 BEGIN BOND
M  V30 1 2 3 4
M  V30 2 1 4 5
M  V30 3 1 5 6
M  V30 4 1 6 7
M  V30 5 1 7 8
M  V30 6 2 8 9
M  V30 7 1 8 10
M  V30 8 2 10 11
M  V30 9 1 11 12
M  V30 10 2 12 13
M  V30 11 1 13 14
M  V30 12 1 13 15
M  V30 13 2 15 16
M  V30 14 2 5 17
M  V30 15 1 17 18
M  V30 16 2 18 19
M  V30 17 1 19 3
M  V30 18 1 16 10
M  V30 19 1 3 20
M  V30 20 1 4 21
M  V30 21 1 6 22
M  V30 22 1 6 23
M  V30 23 1 11 24
M  V30 24 1 12 25
M  V30 25 1 14 26
M  V30 26 1 14 27
M  V30 27 1 14 28
M  V30 28 1 16 29
M  V30 29 1 17 30
M  V30 30 1 19 31
M  V30 31 2 32 33
M  V30 32 1 33 34
M  V30 33 1 34 35
M  V30 34 1 35 36
M  V30 35 1 36 37
M  V30 36 2 37 38
M  V30 37 1 37 39
M  V30 38 2 39 40
M  V30 39 1 40 41
M  V30 40 2 41 42
M  V30 41 1 42 43
M  V30 42 1 42 44
M  V30 43 2 44 45
M  V30 44 2 34 46
M  V30 45 1 46 47
M  V30 46 2 47 48
M  V30 47 1 48 32
M  V30 48 1 45 39
M  V30 49 1 32 49
M  V30 50 1 33 50
M  V30 51 1 35 51
M  V30 52 1 35 52
M  V30 53 1 40 53
M  V30 54 1 41 54
M  V30 55 1 43 55
M  V30 56 1 43 56
M  V30 57 1 43 57
M  V30 58 1 45 58
M  V30 59 1 46 59
M  V30 60 1 48 60
M  V30 61 2 61 62
M  V30 62 1 62 63
M  V30 63 1 63 64
M  V30 64 1 64 65
M  V30 65 1 65 66
M  V30 66 2 66 67
M  V30 67 1 66 68
M  V30 68 2 68 69
M  V30 69 1 69 70
M  V30 70 2 70 71
M  V30 71 1 71 72
M  V30 72 1 71 73
M  V30 73 2 73 74
M  V30 74 2 63 75
M  V30 75 1 75 76
M  V30 76 2 76 77
M  V30 77 1 77 61
M  V30 78 1 74 68
M  V30 79 1 61 78
M  V30 80 1 62 79
M  V30 81 1 64 80
M  V30 82 1 64 81
M  V30 83 1 69 82
M  V30 84 1 70 83
M  V30 85 1 72 84
M  V30 86 1 72 85
M  V30 87 1 72 86
M  V30 88 1 74 87
M  V30 89 1 75 88
M  V30 90 1 77 89
M  V30 91 2 90 91
M  V30 92 1 91 92
M  V30 93 1 92 93
M  V30 94 1 93 94
M  V30 95 1 94 95
M  V30 96 2 95 96
M  V30 97 1 95 97
M  V30 98 2 97 98
M  V30 99 1 98 99
M  V30 100 2 99 100
M  V30 101 1 100 101
M  V30 102 1 100 102
M  V30 103 2 102 103
M  V30 104 2 92 104
M  V30 105 1 104 105
M  V30 106 2 105 106
M  V30 107 1 106 90
M  V30 108 1 103 97
M  V30 109 1 90 107
M  V30 110 1 91 108
M  V30 111 1 93 109
M  V30 112 1 93 110
M  V30 113 1 98 111
M  V30 114 1 99 112
M  V30 115 1 101 113
M  V30 116 1 101 114
M  V30 117 1 101 115
M  V30 118 1 103 116
M  V30 119 1 104 117
M  V30 120 1 106 118
M  V30 121 9 18 1
M  V30 122 9 44 1
M  V30 123 9 73 1
M  V30 124 9 102 1
M  V30 125 9 15 2
M  V30 126 9 47 2
M  V30 127 9 76 2
M  V30 128 9 105 2
M  V30 END BOND
M  V30 END CTAB
M  END

$$$$
