
     RDKit          3D

  0  0  0  0  0  0  0  0  0  0999 V3000
M  V30 BEGIN CTAB
M  V30 COUNTS 129 136 0 0 0
M  V30 BEGIN ATOM
M  V30 1 Pd -0.0369 2.8777 0.0031 0 CHG=2
M  V30 2 Pd 0.0592 -3.0856 -0.0789 0 CHG=2
M  V30 3 C 3.3849 3.7406 -2.4724 0
M  V30 4 C 4.3550 2.8863 -1.9792 0
M  V30 5 C 3.9973 1.9725 -0.9920 0
M  V30 6 C 4.9951 0.9934 -0.4432 0
M  V30 7 O 4.3013 -0.1872 -0.0478 0
M  V30 8 C 4.8518 -0.9690 0.8801 0
M  V30 9 O 5.9134 -0.7576 1.4121 0
M  V30 10 C 3.9781 -2.1397 1.1595 0
M  V30 11 C 4.4709 -3.2367 1.8677 0
M  V30 12 C 3.6374 -4.3177 2.0650 0
M  V30 13 C 2.3398 -4.3044 1.5482 0
M  V30 14 C 1.4417 -5.4778 1.7192 0
M  V30 15 N 1.8756 -3.2318 0.8935 0
M  V30 16 C 2.6646 -2.1757 0.7088 0
M  V30 17 C 2.6904 1.9903 -0.5204 0
M  V30 18 N 1.7706 2.8419 -0.9734 0
M  V30 19 C 2.1011 3.6805 -1.9512 0
M  V30 20 H 3.6061 4.4526 -3.2501 0
M  V30 21 H 5.3639 2.9183 -2.3607 0
M  V30 22 H 5.7411 0.7348 -1.2022 0
M  V30 23 H 5.5273 1.4084 0.4230 0
M  V30 24 H 5.4848 -3.2238 2.2369 0
M  V30 25 H 3.9799 -5.1863 2.6041 0
M  V30 26 H 0.6841 -5.5011 0.9343 0
M  V30 27 H 0.9428 -5.4283 2.6875 0
M  V30 28 H 2.0090 -6.4047 1.6873 0
M  V30 29 H 2.2273 -1.3230 0.1955 0
M  V30 30 H 2.3655 1.2731 0.2249 0
M  V30 31 H 1.3363 4.3330 -2.3397 0
M  V30 32 C -2.5479 -4.2293 3.0497 0
M  V30 33 C -2.4548 -3.2069 3.9781 0
M  V30 34 C -1.5732 -2.1566 3.7359 0
M  V30 35 C -1.4480 -1.0284 4.7205 0
M  V30 36 O -0.7741 0.0832 4.1421 0
M  V30 37 C 0.3709 0.5040 4.6923 0
M  V30 38 O 0.8666 0.0468 5.6905 0
M  V30 39 C 0.9225 1.6348 3.9000 0
M  V30 40 C 1.7761 2.5801 4.4713 0
M  V30 41 C 2.2072 3.6281 3.6843 0
M  V30 42 C 1.7646 3.7473 2.3632 0
M  V30 43 C 2.1836 4.9093 1.5342 0
M  V30 44 N 0.9614 2.8196 1.8275 0
M  V30 45 C 0.5758 1.7799 2.5640 0
M  V30 46 C -0.8274 -2.1854 2.5653 0
M  V30 47 N -0.9312 -3.1671 1.6711 0
M  V30 48 C -1.7720 -4.1746 1.9019 0
M  V30 49 H -3.2184 -5.0589 3.2031 0
M  V30 50 H -3.0587 -3.2178 4.8716 0
M  V30 51 H -2.4453 -0.6903 5.0171 0
M  V30 52 H -0.9002 -1.3579 5.6133 0
M  V30 53 H 2.0751 2.4830 5.5034 0
M  V30 54 H 2.8719 4.3776 4.0836 0
M  V30 55 H 1.5781 4.9941 0.6313 0
M  V30 56 H 3.2278 4.8003 1.2420 0
M  V30 57 H 2.1060 5.8331 2.1029 0
M  V30 58 H -0.0071 1.0190 2.0560 0
M  V30 59 H -0.1415 -1.3829 2.3167 0
M  V30 60 H -1.8279 -4.9553 1.1513 0
M  V30 61 C -3.3831 -3.5881 -2.6695 0
M  V30 62 C -4.3819 -2.8924 -2.0110 0
M  V30 63 C -4.0392 -2.1466 -0.8878 0
M  V30 64 C -5.0571 -1.3415 -0.1242 0
M  V30 65 O -4.4654 -0.1381 0.3565 0
M  V30 66 C -4.1283 -0.0520 1.6444 0
M  V30 67 O -4.3687 -0.8824 2.4849 0
M  V30 68 C -3.3966 1.2203 1.8866 0
M  V30 69 C -3.5932 1.9710 3.0449 0
M  V30 70 C -2.9180 3.1680 3.1684 0
M  V30 71 C -2.0158 3.5667 2.1806 0
M  V30 72 C -1.3400 4.8924 2.2623 0
M  V30 73 N -1.7694 2.7835 1.1208 0
M  V30 74 C -2.4700 1.6652 0.9531 0
M  V30 75 C -2.7161 -2.1667 -0.4692 0
M  V30 76 N -1.7649 -2.8731 -1.0773 0
M  V30 77 C -2.0873 -3.5514 -2.1754 0
M  V30 78 H -3.5942 -4.1642 -3.5553 0
M  V30 79 H -5.4005 -2.9206 -2.3657 0
M  V30 80 H -5.8872 -1.0504 -0.7708 0
M  V30 81 H -5.4379 -1.9222 0.7261 0
M  V30 82 H -4.2837 1.6310 3.8007 0
M  V30 83 H -3.0787 3.8059 4.0229 0
M  V30 84 H -0.7320 4.9639 3.1624 0
M  V30 85 H -2.0930 5.6778 2.3228 0
M  V30 86 H -0.7200 5.0728 1.3803 0
M  V30 87 H -2.2651 1.0886 0.0584 0
M  V30 88 H -2.4048 -1.5705 0.3805 0
M  V30 89 H -1.3058 -4.0999 -2.6801 0
M  V30 90 C 2.3535 -4.3196 -3.4233 0
M  V30 91 C 2.2283 -3.2808 -4.3289 0
M  V30 92 C 1.5119 -2.1460 -3.9554 0
M  V30 93 C 1.3568 -0.9877 -4.9025 0
M  V30 94 O 0.7319 0.1135 -4.2505 0
M  V30 95 C -0.3573 0.6526 -4.8096 0
M  V30 96 O -0.8059 0.3195 -5.8800 0
M  V30 97 C -0.9549 1.6971 -3.9412 0
M  V30 98 C -1.9945 2.4976 -4.4222 0
M  V30 99 C -2.5602 3.4110 -3.5637 0
M  V30 100 C -2.0841 3.5429 -2.2539 0
M  V30 101 C -2.7484 4.5195 -1.3513 0
M  V30 102 N -1.0678 2.7911 -1.8156 0
M  V30 103 C -0.5299 1.8868 -2.6339 0
M  V30 104 C 0.9436 -2.1232 -2.6901 0
M  V30 105 N 1.0583 -3.1309 -1.8277 0
M  V30 106 C 1.7561 -4.2076 -2.1767 0
M  V30 107 H 2.8948 -5.2164 -3.6747 0
M  V30 108 H 2.6765 -3.3475 -5.3083 0
M  V30 109 H 2.3377 -0.6579 -5.2603 0
M  V30 110 H 0.7522 -1.2815 -5.7706 0
M  V30 111 H -2.3345 2.3800 -5.4394 0
M  V30 112 H -3.3686 4.0459 -3.8885 0
M  V30 113 H -2.6862 5.5135 -1.7928 0
M  V30 114 H -2.2619 4.5506 -0.3813 0
M  V30 115 H -3.8026 4.2721 -1.2421 0
M  V30 116 H 0.2537 1.2585 -2.2261 0
M  V30 117 H 0.3863 -1.2566 -2.3519 0
M  V30 118 H 1.8286 -5.0165 -1.4601 0
M  V30 119 Cl 0.0070 -0.1622 -0.0689 0
M  V30 120 B -0.0216 6.4547 -1.9799 0 CHG=-1
M  V30 121 F -0.9929 7.3958 -1.7440 0
M  V30 122 F 1.2343 7.0141 -2.0313 0
M  V30 123 F -0.0382 5.5050 -0.9244 0
M  V30 124 F -0.2877 5.7654 -3.1543 0
M  V30 125 B -0.4995 -6.7189 -1.7699 0 CHG=-1
M  V30 126 F 0.6615 -7.3768 -1.4307 0
M  V30 127 F -1.6017 -7.5256 -1.6418 0
M  V30 128 F -0.6395 -5.6157 -0.8818 0
M  V30 129 F -0.4037 -6.2061 -3.0515 0
M  V30 END ATOM
M  V30 BEGIN BOND
M  V30 1 2 3 4
M  V30 2 1 4 5
M  V30 3 1 5 6
M  V30 4 1 6 7
M  V30 5 1 7 8
M  V30 6 2 8 9
M  V30 7 1 8 10
M  V30 8 2 10 11
M  V30 9 1 11 12
M  V30 10 2 12 13
M  V30 11 1 13 14
M  V30 12 1 13 15
M  V30 13 2 15 16
M  V30 14 2 5 17
M  V30 15 1 17 18
M  V30 16 2 18 19
M  V30 17 1 19 3
M  V30 18 1 16 10
M  V30 19 1 3 20
M  V30 20 1 4 21
M  V30 21 1 6 22
M  V30 22 1 6 23
M  V30 23 1 11 24
M  V30 24 1 12 25
M  V30 25 1 14 26
M  V30 26 1 14 27
M  V30 27 1 14 28
M  V30 28 1 16 29
M  V30 29 1 17 30
M  V30 30 1 19 31
M  V30 31 2 32 33
M  V30 32 1 33 34
M  V30 33 1 34 35
M  V30 34 1 35 36
M  V30 35 1 36 37
M  V30 36 2 37 38
M  V30 37 1 37 39
M  V30 38 2 39 40
M  V30 39 1 40 41
M  V30 40 2 41 42
M  V30 41 1 42 43
M  V30 42 1 42 44
M  V30 43 2 44 45
M  V30 44 2 34 46
M  V30 45 1 46 47
M  V30 46 2 47 48
M  V30 47 1 48 32
M  V30 48 1 45 39
M  V30 49 1 32 49
M  V30 50 1 33 50
M  V30 51 1 35 51
M  V30 52 1 35 52
M  V30 53 1 40 53
M  V30 54 1 41 54
M  V30 55 1 43 55
M  V30 56 1 43 56
M  V30 57 1 43 57
M  V30 58 1 45 58
M  V30 59 1 46 59
M  V30 60 1 48 60
M  V30 61 2 61 62
M  V30 62 1 62 63
M  V30 63 1 63 64
M  V30 64 1 64 65
M  V30 65 1 65 66
M  V30 66 2 66 67
M  V30 67 1 66 68
M  V30 68 2 68 69
M  V30 69 1 69 70
M  V30 70 2 70 71
M  V30 71 1 71 72
M  V30 72 1 71 73
M  V30 73 2 73 74
M  V30 74 2 63 75
M  V30 75 1 75 76
M  V30 76 2 76 77
M  V30 77 1 77 61
M  V30 78 1 74 68
M  V30 79 1 61 78
M  V30 80 1 62 79
M  V30 81 1 64 80
M  V30 82 1 64 81
M  V30 83 1 69 82
M  V30 84 1 70 83
M  V30 85 1 72 84
M  V30 86 1 72 85
M  V30 87 1 72 86
M  V30 88 1 74 87
M  V30 89 1 75 88
M  V30 90 1 77 89
M  V30 91 2 90 91
M  V30 92 1 91 92
M  V30 93 1 92 93
M  V30 94 1 93 94
M  V30 95 1 94 95
M  V30 96 2 95 96
M  V30 97 1 95 97
M  V30 98 2 97 98
M  V30 99 1 98 99
M  V30 100 2 99 100
M  V30 101 1 100 101
M  V30 102 1 100 102
M  V30 103 2 102 103
M  V30 104 2 92 104
M  V30 105 1 104 105
M  V30 106 2 105 106
M  V30 107 1 106 90
M  V30 108 1 103 97
M  V30 109 1 90 107
M  V30 110 1 91 108
M  V30 111 1 93 109
M  V30 112 1 93 110
M  V30 113 1 98 111
M  V30 114 1 99 112
M  V30 115 1 101 113
M  V30 116 1 101 114
M  V30 117 1 101 115
M  V30 118 1 103 116
M  V30 119 1 104 117
M  V30 120 1 106 118
M  V30 121 9 18 1
M  V30 122 9 44 1
M  V30 123 9 73 1
M  V30 124 9 102 1
M  V30 125 9 15 2
M  V30 126 9 47 2
M  V30 127 9 76 2
M  V30 128 9 105 2
M  V30 129 1 120 121
M  V30 130 1 120 122
M  V30 131 1 120 123
M  V30 132 1 120 124
M  V30 133 1 125 126
M  V30 134 1 125 127
M  V30 135 1 125 128
M  V30 136 1 125 129
M  V30 END BOND
M  V30 END CTAB
M  END

$$$$
