
     RDKit          3D

  0  0  0  0  0  0  0  0  0  0999 V3000
M  V30 BEGIN CTAB
M  V30 COUNTS 130 144 0 0 0
M  V30 BEGIN ATOM
M  V30 1 Pd -1.0869 3.8551 0.0306 0 CHG=2
M  V30 2 Pd -1.4131 -3.1072 -0.1422 0 CHG=2
M  V30 3 C 2.8459 4.7608 -1.2457 0
M  V30 4 C 3.5598 3.6128 -0.9512 0
M  V30 5 C 2.8900 2.5142 -0.4099 0
M  V30 6 C 3.6720 1.2861 -0.0676 0
M  V30 7 O 2.8217 0.1755 0.2206 0
M  V30 8 C 3.4200 -0.8445 0.8498 0
M  V30 9 O 4.5594 -0.8136 1.2410 0
M  V30 10 C 2.5429 -2.0393 0.9802 0
M  V30 11 C 3.0940 -3.1910 1.5081 0
M  V30 12 C 2.3301 -4.3674 1.5635 0
M  V30 13 C 0.9976 -4.3178 1.0596 0
M  V30 14 C 0.2231 -5.4942 1.0533 0
M  V30 15 C 0.7421 -6.6660 1.5410 0
M  V30 16 C 2.0501 -6.7128 2.0548 0
M  V30 17 C 2.8311 -5.5886 2.0657 0
M  V30 18 N 0.4765 -3.1570 0.5793 0
M  V30 19 C 1.2075 -2.0645 0.5363 0
M  V30 20 C 1.5253 2.6264 -0.1826 0
M  V30 21 N 0.8513 3.7467 -0.4502 0
M  V30 22 C 1.4858 4.7914 -0.9768 0
M  V30 23 H 3.3351 5.6215 -1.6716 0
M  V30 24 H 4.6217 3.5645 -1.1372 0
M  V30 25 H 4.3136 1.4827 0.8025 0
M  V30 26 H 4.3368 1.0162 -0.8969 0
M  V30 27 H 4.1157 -3.1837 1.8579 0
M  V30 28 H -0.7936 -5.4615 0.6555 0
M  V30 29 H 0.1522 -7.5693 1.5354 0
M  V30 30 H 2.4365 -7.6447 2.4363 0
M  V30 31 H 3.8388 -5.6170 2.4497 0
M  V30 32 H 0.7464 -1.1679 0.1271 0
M  V30 33 H 0.9617 1.7937 0.2309 0
M  V30 34 H 0.9002 5.6764 -1.2032 0
M  V30 35 C -3.2980 -4.1658 3.4969 0
M  V30 36 C -3.0341 -3.0921 4.3286 0
M  V30 37 C -2.3310 -1.9967 3.8244 0
M  V30 38 C -2.0236 -0.8513 4.7357 0
M  V30 39 O -1.5460 0.2875 4.0184 0
M  V30 40 C -0.9393 1.2147 4.7710 0
M  V30 41 O -0.7130 1.0791 5.9468 0
M  V30 42 C -0.6092 2.4512 4.0120 0
M  V30 43 C -0.0905 3.5217 4.7147 0
M  V30 44 C 0.1479 4.7382 4.0561 0
M  V30 45 C -0.1656 4.8137 2.6676 0
M  V30 46 C 0.0130 6.0356 1.9902 0
M  V30 47 C 0.4971 7.1314 2.6574 0
M  V30 48 C 0.8238 7.0539 4.0228 0
M  V30 49 C 0.6523 5.8832 4.7111 0
M  V30 50 N -0.6416 3.7285 2.0002 0
M  V30 51 C -0.8579 2.5967 2.6344 0
M  V30 52 C -1.9180 -2.0372 2.4998 0
M  V30 53 N -2.1593 -3.0880 1.7133 0
M  V30 54 C -2.8392 -4.1287 2.1888 0
M  V30 55 H -3.8455 -5.0215 3.8566 0
M  V30 56 H -3.3672 -3.0987 5.3550 0
M  V30 57 H -1.2678 -1.1539 5.4737 0
M  V30 58 H -2.9193 -0.5637 5.2993 0
M  V30 59 H 0.1108 3.4214 5.7710 0
M  V30 60 H -0.2392 6.0994 0.9294 0
M  V30 61 H 0.6327 8.0694 2.1419 0
M  V30 62 H 1.2062 7.9276 4.5266 0
M  V30 63 H 0.8919 5.8168 5.7609 0
M  V30 64 H -1.2553 1.7654 2.0559 0
M  V30 65 H -1.3738 -1.2036 2.0629 0
M  V30 66 H -3.0370 -4.9541 1.5129 0
M  V30 67 C -4.9216 5.0597 1.3570 0
M  V30 68 C -5.7390 3.9999 1.0061 0
M  V30 69 C -5.1731 2.8717 0.4098 0
M  V30 70 C -6.0654 1.7410 0.0072 0
M  V30 71 O -5.3218 0.5709 -0.3357 0
M  V30 72 C -6.0112 -0.3569 -1.0124 0
M  V30 73 O -7.1419 -0.2008 -1.3992 0
M  V30 74 C -5.2494 -1.6208 -1.2025 0
M  V30 75 C -5.9044 -2.6889 -1.7845 0
M  V30 76 C -5.2537 -3.9274 -1.8987 0
M  V30 77 C -3.9236 -4.0271 -1.3961 0
M  V30 78 C -3.2624 -5.2696 -1.4487 0
M  V30 79 C -3.8875 -6.3628 -1.9915 0
M  V30 80 C -5.1930 -6.2621 -2.5040 0
M  V30 81 C -5.8655 -5.0706 -2.4585 0
M  V30 82 N -3.2973 -2.9448 -0.8610 0
M  V30 83 C -3.9232 -1.7922 -0.7633 0
M  V30 84 C -3.8031 2.8667 0.1868 0
M  V30 85 N -3.0280 3.9041 0.5095 0
M  V30 86 C -3.5637 4.9760 1.0886 0
M  V30 87 H -5.3296 5.9401 1.8259 0
M  V30 88 H -6.8014 4.0423 1.1905 0
M  V30 89 H -6.6818 2.0396 -0.8521 0
M  V30 90 H -6.7564 1.4941 0.8222 0
M  V30 91 H -6.9202 -2.5691 -2.1312 0
M  V30 92 H -2.2480 -5.3515 -1.0521 0
M  V30 93 H -3.3846 -7.3164 -2.0312 0
M  V30 94 H -5.6640 -7.1341 -2.9295 0
M  V30 95 H -6.8705 -4.9860 -2.8413 0
M  V30 96 H -3.3813 -0.9636 -0.3119 0
M  V30 97 H -3.3186 2.0066 -0.2687 0
M  V30 98 H -2.8985 5.7896 1.3587 0
M  V30 99 C 0.3740 -4.1570 -3.8329 0
M  V30 100 C 0.2151 -3.0231 -4.6096 0
M  V30 101 C -0.3832 -1.8927 -4.0502 0
M  V30 102 C -0.5780 -0.6795 -4.9030 0
M  V30 103 O -0.9496 0.4621 -4.1295 0
M  V30 104 C -1.4608 1.4793 -4.8353 0
M  V30 105 O -1.6913 1.4249 -6.0170 0
M  V30 106 C -1.6772 2.7021 -4.0156 0
M  V30 107 C -2.0882 3.8505 -4.6643 0
M  V30 108 C -2.2151 5.0496 -3.9456 0
M  V30 109 C -1.9045 5.0258 -2.5547 0
M  V30 110 C -1.9717 6.2236 -1.8168 0
M  V30 111 C -2.3465 7.3922 -2.4287 0
M  V30 112 C -2.6702 7.4143 -3.7969 0
M  V30 113 C -2.6054 6.2684 -4.5430 0
M  V30 114 N -1.5365 3.8686 -1.9421 0
M  V30 115 C -1.4241 2.7546 -2.6321 0
M  V30 116 C -0.8024 -1.9600 -2.7287 0
M  V30 117 N -0.6637 -3.0667 -1.9960 0
M  V30 118 C -0.0834 -4.1419 -2.5239 0
M  V30 119 H 0.8396 -5.0415 -4.2357 0
M  V30 120 H 0.5492 -3.0099 -5.6357 0
M  V30 121 H -1.3557 -0.8727 -5.6548 0
M  V30 122 H 0.3432 -0.4496 -5.4519 0
M  V30 123 H -2.2915 3.8227 -5.7246 0
M  V30 124 H -1.7216 6.2102 -0.7538 0
M  V30 125 H -2.3966 8.3119 -1.8669 0
M  V30 126 H -2.9656 8.3441 -4.2566 0
M  V30 127 H -2.8435 6.2774 -5.5951 0
M  V30 128 H -1.1102 1.8616 -2.0956 0
M  V30 129 H -1.2669 -1.1015 -2.2499 0
M  V30 130 H 0.0335 -5.0150 -1.8903 0
M  V30 END ATOM
M  V30 BEGIN BOND
M  V30 1 2 3 4
M  V30 2 1 4 5
M  V30 3 1 5 6
M  V30 4 1 6 7
M  V30 5 1 7 8
M  V30 6 2 8 9
M  V30 7 1 8 10
M  V30 8 2 10 11
M  V30 9 1 11 12
M  V30 10 2 12 13
M  V30 11 1 13 14
M  V30 12 2 14 15
M  V30 13 1 15 16
M  V30 14 2 16 17
M  V30 15 1 13 18
M  V30 16 2 18 19
M  V30 17 2 5 20
M  V30 18 1 20 21
M  V30 19 2 21 22
M  V30 20 1 22 3
M  V30 21 1 19 10
M  V30 22 1 17 12
M  V30 23 1 3 23
M  V30 24 1 4 24
M  V30 25 1 6 25
M  V30 26 1 6 26
M  V30 27 1 11 27
M  V30 28 1 14 28
M  V30 29 1 15 29
M  V30 30 1 16 30
M  V30 31 1 17 31
M  V30 32 1 19 32
M  V30 33 1 20 33
M  V30 34 1 22 34
M  V30 35 2 35 36
M  V30 36 1 36 37
M  V30 37 1 37 38
M  V30 38 1 38 39
M  V30 39 1 39 40
M  V30 40 2 40 41
M  V30 41 1 40 42
M  V30 42 2 42 43
M  V30 43 1 43 44
M  V30 44 2 44 45
M  V30 45 1 45 46
M  V30 46 2 46 47
M  V30 47 1 47 48
M  V30 48 2 48 49
M  V30 49 1 45 50
M  V30 50 2 50 51
M  V30 51 2 37 52
M  V30 52 1 52 53
M  V30 53 2 53 54
M  V30 54 1 54 35
M  V30 55 1 51 42
M  V30 56 1 49 44
M  V30 57 1 35 55
M  V30 58 1 36 56
M  V30 59 1 38 57
M  V30 60 1 38 58
M  V30 61 1 43 59
M  V30 62 1 46 60
M  V30 63 1 47 61
M  V30 64 1 48 62
M  V30 65 1 49 63
M  V30 66 1 51 64
M  V30 67 1 52 65
M  V30 68 1 54 66
M  V30 69 2 67 68
M  V30 70 1 68 69
M  V30 71 1 69 70
M  V30 72 1 70 71
M  V30 73 1 71 72
M  V30 74 2 72 73
M  V30 75 1 72 74
M  V30 76 2 74 75
M  V30 77 1 75 76
M  V30 78 2 76 77
M  V30 79 1 77 78
M  V30 80 2 78 79
M  V30 81 1 79 80
M  V30 82 2 80 81
M  V30 83 1 77 82
M  V30 84 2 82 83
M  V30 85 2 69 84
M  V30 86 1 84 85
M  V30 87 2 85 86
M  V30 88 1 86 67
M  V30 89 1 83 74
M  V30 90 1 81 76
M  V30 91 1 67 87
M  V30 92 1 68 88
M  V30 93 1 70 89
M  V30 94 1 70 90
M  V30 95 1 75 91
M  V30 96 1 78 92
M  V30 97 1 79 93
M  V30 98 1 80 94
M  V30 99 1 81 95
M  V30 100 1 83 96
M  V30 101 1 84 97
M  V30 102 1 86 98
M  V30 103 2 99 100
M  V30 104 1 100 101
M  V30 105 1 101 102
M  V30 106 1 102 103
M  V30 107 1 103 104
M  V30 108 2 104 105
M  V30 109 1 104 106
M  V30 110 2 106 107
M  V30 111 1 107 108
M  V30 112 2 108 109
M  V30 113 1 109 110
M  V30 114 2 110 111
M  V30 115 1 111 112
M  V30 116 2 112 113
M  V30 117 1 109 114
M  V30 118 2 114 115
M  V30 119 2 101 116
M  V30 120 1 116 117
M  V30 121 2 117 118
M  V30 122 1 118 99
M  V30 123 1 115 106
M  V30 124 1 113 108
M  V30 125 1 99 119
M  V30 126 1 100 120
M  V30 127 1 102 121
M  V30 128 1 102 122
M  V30 129 1 107 123
M  V30 130 1 110 124
M  V30 131 1 111 125
M  V30 132 1 112 126
M  V30 133 1 113 127
M  V30 134 1 115 128
M  V30 135 1 116 129
M  V30 136 1 118 130
M  V30 137 9 21 1
M  V30 138 9 50 1
M  V30 139 9 85 1
M  V30 140 9 114 1
M  V30 141 9 18 2
M  V30 142 9 53 2
M  V30 143 9 82 2
M  V30 144 9 117 2
M  V30 END BOND
M  V30 END CTAB
M  END

$$$$
