
     RDKit          3D

  0  0  0  0  0  0  0  0  0  0999 V3000
M  V30 BEGIN CTAB
M  V30 COUNTS 130 144 0 0 0
M  V30 BEGIN ATOM
M  V30 1 Pd -2.2278 4.2970 0.7613 0 CHG=2
M  V30 2 Pd -2.2123 -2.6472 1.3931 0 CHG=2
M  V30 3 C 1.5392 5.4601 2.3226 0
M  V30 4 C 2.3198 4.3249 2.1937 0
M  V30 5 C 1.7571 3.1712 1.6458 0
M  V30 6 C 2.6057 1.9475 1.5047 0
M  V30 7 O 1.8347 0.8055 1.1313 0
M  V30 8 C 2.4946 -0.1485 0.4606 0
M  V30 9 O 3.6346 -0.0422 0.0853 0
M  V30 10 C 1.6757 -1.3734 0.2581 0
M  V30 11 C 2.2673 -2.4565 -0.3612 0
M  V30 12 C 1.5490 -3.6539 -0.5022 0
M  V30 13 C 0.2243 -3.7039 0.0240 0
M  V30 14 C -0.5035 -4.9047 -0.0841 0
M  V30 15 C 0.0521 -6.0019 -0.6902 0
M  V30 16 C 1.3554 -5.9514 -1.2137 0
M  V30 17 C 2.0913 -4.8013 -1.1217 0
M  V30 18 N -0.3323 -2.6126 0.6190 0
M  V30 19 C 0.3534 -1.4953 0.7253 0
M  V30 20 C 0.4298 3.2166 1.2408 0
M  V30 21 N -0.3080 4.3223 1.3529 0
M  V30 22 C 0.2230 5.4194 1.8899 0
M  V30 23 H 1.9437 6.3630 2.7499 0
M  V30 24 H 3.3499 4.3276 2.5150 0
M  V30 25 H 3.1138 1.7307 2.4522 0
M  V30 26 H 3.3865 2.1158 0.7504 0
M  V30 27 H 3.2816 -2.3789 -0.7239 0
M  V30 28 H -1.5148 -4.9558 0.3165 0
M  V30 29 H -0.5070 -6.9211 -0.7710 0
M  V30 30 H 1.7726 -6.8265 -1.6864 0
M  V30 31 H 3.0942 -4.7512 -1.5163 0
M  V30 32 H -0.1342 -0.6494 1.2050 0
M  V30 33 H -0.0494 2.3410 0.8108 0
M  V30 34 H -0.4144 6.2925 1.9901 0
M  V30 35 C -3.3914 5.8463 4.5031 0
M  V30 36 C -3.2470 4.7698 5.3606 0
M  V30 37 C -2.8411 3.5360 4.8470 0
M  V30 38 C -2.6744 2.3777 5.7804 0
M  V30 39 O -2.2278 1.1983 5.1097 0
M  V30 40 C -1.3902 0.4084 5.7962 0
M  V30 41 O -0.9084 0.6955 6.8620 0
M  V30 42 C -1.1642 -0.8990 5.1198 0
M  V30 43 C -0.5581 -1.9055 5.8469 0
M  V30 44 C -0.4529 -3.1939 5.2994 0
M  V30 45 C -0.9851 -3.4054 3.9940 0
M  V30 46 C -0.9886 -4.7053 3.4551 0
M  V30 47 C -0.4503 -5.7476 4.1643 0
M  V30 48 C 0.1144 -5.5346 5.4346 0
M  V30 49 C 0.1096 -4.2861 5.9958 0
M  V30 50 N -1.5057 -2.3745 3.2781 0
M  V30 51 C -1.6030 -1.1755 3.8112 0
M  V30 52 C -2.6049 3.4427 3.4832 0
M  V30 53 N -2.7380 4.4920 2.6692 0
M  V30 54 C -3.1193 5.6697 3.1540 0
M  V30 55 H -3.7024 6.8093 4.8738 0
M  V30 56 H -3.4413 4.8812 6.4163 0
M  V30 57 H -3.6316 2.1525 6.2665 0
M  V30 58 H -1.9570 2.6329 6.5712 0
M  V30 59 H -0.1972 -1.7037 6.8446 0
M  V30 60 H -1.4382 -4.8695 2.4745 0
M  V30 61 H -0.4576 -6.7468 3.7578 0
M  V30 62 H 0.5406 -6.3677 5.9709 0
M  V30 63 H 0.5219 -4.1187 6.9787 0
M  V30 64 H -2.0537 -0.3917 3.2045 0
M  V30 65 H -2.2891 2.5033 3.0345 0
M  V30 66 H -3.2167 6.4933 2.4526 0
M  V30 67 C -5.9175 -3.7114 3.0944 0
M  V30 68 C -6.6883 -2.5732 2.9352 0
M  V30 69 C -6.1184 -1.4368 2.3568 0
M  V30 70 C -6.9598 -0.2122 2.1752 0
M  V30 71 O -6.2433 0.8525 1.5481 0
M  V30 72 C -6.9507 1.6334 0.7195 0
M  V30 73 O -8.0877 1.4146 0.3879 0
M  V30 74 C -6.1915 2.8423 0.2954 0
M  V30 75 C -6.8919 3.8595 -0.3244 0
M  V30 76 C -6.2477 5.0725 -0.6145 0
M  V30 77 C -4.8753 5.1986 -0.2500 0
M  V30 78 C -4.2256 6.4332 -0.4338 0
M  V30 79 C -4.8969 7.4895 -0.9930 0
M  V30 80 C -6.2385 7.3558 -1.3928 0
M  V30 81 C -6.9048 6.1750 -1.2036 0
M  V30 82 N -4.1984 4.1513 0.2895 0
M  V30 83 C -4.8212 3.0246 0.5613 0
M  V30 84 C -4.7877 -1.4991 1.9695 0
M  V30 85 N -4.0589 -2.6071 2.1196 0
M  V30 86 C -4.5981 -3.6929 2.6652 0
M  V30 87 H -6.3331 -4.6019 3.5370 0
M  V30 88 H -7.7204 -2.5628 3.2501 0
M  V30 89 H -7.3140 0.1422 3.1511 0
M  V30 90 H -7.8456 -0.4512 1.5723 0
M  V30 91 H -7.9389 3.7273 -0.5537 0
M  V30 92 H -3.1883 6.5374 -0.1116 0
M  V30 93 H -4.4046 8.4397 -1.1289 0
M  V30 94 H -6.7444 8.1975 -1.8391 0
M  V30 95 H -7.9402 6.0710 -1.4885 0
M  V30 96 H -4.2385 2.2268 1.0190 0
M  V30 97 H -4.2976 -0.6401 1.5163 0
M  V30 98 H -3.9650 -4.5693 2.7695 0
M  V30 99 C -4.2914 -3.9802 -2.0539 0
M  V30 100 C -4.1552 -2.9359 -2.9513 0
M  V30 101 C -3.4481 -1.7960 -2.5660 0
M  V30 102 C -3.3006 -0.6708 -3.5405 0
M  V30 103 O -2.7405 0.4919 -2.9301 0
M  V30 104 C -2.0669 1.3121 -3.7480 0
M  V30 105 O -1.8356 1.0688 -4.9051 0
M  V30 106 C -1.6626 2.5778 -3.0796 0
M  V30 107 C -1.0177 3.5360 -3.8364 0
M  V30 108 C -0.6883 4.7717 -3.2584 0
M  V30 109 C -1.0555 4.9918 -1.8979 0
M  V30 110 C -0.7577 6.2353 -1.3077 0
M  V30 111 C -0.1202 7.2118 -2.0288 0
M  V30 112 C 0.2470 6.9933 -3.3677 0
M  V30 113 C -0.0316 5.7979 -3.9727 0
M  V30 114 N -1.6804 4.0196 -1.1774 0
M  V30 115 C -1.9645 2.8626 -1.7346 0
M  V30 116 C -2.8984 -1.7638 -1.2914 0
M  V30 117 N -3.0205 -2.7843 -0.4410 0
M  V30 118 C -3.7084 -3.8663 -0.8015 0
M  V30 119 H -4.8392 -4.8694 -2.3202 0
M  V30 120 H -4.5919 -2.9976 -3.9361 0
M  V30 121 H -4.2784 -0.4070 -3.9614 0
M  V30 122 H -2.6607 -0.9799 -4.3783 0
M  V30 123 H -0.7802 3.3327 -4.8701 0
M  V30 124 H -1.0364 6.4163 -0.2707 0
M  V30 125 H 0.1062 8.1641 -1.5749 0
M  V30 126 H 0.7478 7.7756 -3.9159 0
M  V30 127 H 0.2413 5.6197 -5.0012 0
M  V30 128 H -2.4610 2.1159 -1.1186 0
M  V30 129 H -2.3416 -0.8956 -0.9489 0
M  V30 130 H -3.8103 -4.6660 -0.0745 0
M  V30 END ATOM
M  V30 BEGIN BOND
M  V30 1 2 3 4
M  V30 2 1 4 5
M  V30 3 1 5 6
M  V30 4 1 6 7
M  V30 5 1 7 8
M  V30 6 2 8 9
M  V30 7 1 8 10
M  V30 8 2 10 11
M  V30 9 1 11 12
M  V30 10 2 12 13
M  V30 11 1 13 14
M  V30 12 2 14 15
M  V30 13 1 15 16
M  V30 14 2 16 17
M  V30 15 1 13 18
M  V30 16 2 18 19
M  V30 17 2 5 20
M  V30 18 1 20 21
M  V30 19 2 21 22
M  V30 20 1 22 3
M  V30 21 1 19 10
M  V30 22 1 17 12
M  V30 23 1 3 23
M  V30 24 1 4 24
M  V30 25 1 6 25
M  V30 26 1 6 26
M  V30 27 1 11 27
M  V30 28 1 14 28
M  V30 29 1 15 29
M  V30 30 1 16 30
M  V30 31 1 17 31
M  V30 32 1 19 32
M  V30 33 1 20 33
M  V30 34 1 22 34
M  V30 35 2 35 36
M  V30 36 1 36 37
M  V30 37 1 37 38
M  V30 38 1 38 39
M  V30 39 1 39 40
M  V30 40 2 40 41
M  V30 41 1 40 42
M  V30 42 2 42 43
M  V30 43 1 43 44
M  V30 44 2 44 45
M  V30 45 1 45 46
M  V30 46 2 46 47
M  V30 47 1 47 48
M  V30 48 2 48 49
M  V30 49 1 45 50
M  V30 50 2 50 51
M  V30 51 2 37 52
M  V30 52 1 52 53
M  V30 53 2 53 54
M  V30 54 1 54 35
M  V30 55 1 51 42
M  V30 56 1 49 44
M  V30 57 1 35 55
M  V30 58 1 36 56
M  V30 59 1 38 57
M  V30 60 1 38 58
M  V30 61 1 43 59
M  V30 62 1 46 60
M  V30 63 1 47 61
M  V30 64 1 48 62
M  V30 65 1 49 63
M  V30 66 1 51 64
M  V30 67 1 52 65
M  V30 68 1 54 66
M  V30 69 2 67 68
M  V30 70 1 68 69
M  V30 71 1 69 70
M  V30 72 1 70 71
M  V30 73 1 71 72
M  V30 74 2 72 73
M  V30 75 1 72 74
M  V30 76 2 74 75
M  V30 77 1 75 76
M  V30 78 2 76 77
M  V30 79 1 77 78
M  V30 80 2 78 79
M  V30 81 1 79 80
M  V30 82 2 80 81
M  V30 83 1 77 82
M  V30 84 2 82 83
M  V30 85 2 69 84
M  V30 86 1 84 85
M  V30 87 2 85 86
M  V30 88 1 86 67
M  V30 89 1 83 74
M  V30 90 1 81 76
M  V30 91 1 67 87
M  V30 92 1 68 88
M  V30 93 1 70 89
M  V30 94 1 70 90
M  V30 95 1 75 91
M  V30 96 1 78 92
M  V30 97 1 79 93
M  V30 98 1 80 94
M  V30 99 1 81 95
M  V30 100 1 83 96
M  V30 101 1 84 97
M  V30 102 1 86 98
M  V30 103 2 99 100
M  V30 104 1 100 101
M  V30 105 1 101 102
M  V30 106 1 102 103
M  V30 107 1 103 104
M  V30 108 2 104 105
M  V30 109 1 104 106
M  V30 110 2 106 107
M  V30 111 1 107 108
M  V30 112 2 108 109
M  V30 113 1 109 110
M  V30 114 2 110 111
M  V30 115 1 111 112
M  V30 116 2 112 113
M  V30 117 1 109 114
M  V30 118 2 114 115
M  V30 119 2 101 116
M  V30 120 1 116 117
M  V30 121 2 117 118
M  V30 122 1 118 99
M  V30 123 1 115 106
M  V30 124 1 113 108
M  V30 125 1 99 119
M  V30 126 1 100 120
M  V30 127 1 102 121
M  V30 128 1 102 122
M  V30 129 1 107 123
M  V30 130 1 110 124
M  V30 131 1 111 125
M  V30 132 1 112 126
M  V30 133 1 113 127
M  V30 134 1 115 128
M  V30 135 1 116 129
M  V30 136 1 118 130
M  V30 137 9 21 1
M  V30 138 9 53 1
M  V30 139 9 82 1
M  V30 140 9 114 1
M  V30 141 9 18 2
M  V30 142 9 50 2
M  V30 143 9 85 2
M  V30 144 9 117 2
M  V30 END BOND
M  V30 END CTAB
M  END

$$$$
