
     RDKit          3D

  0  0  0  0  0  0  0  0  0  0999 V3000
M  V30 BEGIN CTAB
M  V30 COUNTS 131 144 0 0 0
M  V30 BEGIN ATOM
M  V30 1 Pd 0.0361 2.5361 0.2402 0 CHG=2
M  V30 2 Pd -0.0936 -3.4046 0.0675 0 CHG=2
M  V30 3 C 3.9559 3.6380 1.4857 0
M  V30 4 C 4.7701 2.6796 0.9045 0
M  V30 5 C 4.1806 1.6461 0.1823 0
M  V30 6 C 5.0250 0.5878 -0.4634 0
M  V30 7 O 4.2196 -0.5567 -0.7246 0
M  V30 8 C 4.5851 -1.3857 -1.7039 0
M  V30 9 O 5.5512 -1.2318 -2.4084 0
M  V30 10 C 3.6420 -2.5330 -1.7865 0
M  V30 11 C 3.9736 -3.6553 -2.5132 0
M  V30 12 C 3.1090 -4.7651 -2.4972 0
M  V30 13 C 1.9148 -4.6730 -1.7255 0
M  V30 14 C 1.0788 -5.8021 -1.6201 0
M  V30 15 C 1.3937 -6.9612 -2.2805 0
M  V30 16 C 2.5503 -7.0413 -3.0744 0
M  V30 17 C 3.3947 -5.9690 -3.1774 0
M  V30 18 N 1.5894 -3.5200 -1.0774 0
M  V30 19 C 2.4142 -2.5030 -1.0951 0
M  V30 20 C 2.7944 1.6300 0.0688 0
M  V30 21 N 2.0222 2.5661 0.6106 0
M  V30 22 C 2.5845 3.5498 1.3148 0
M  V30 23 H 4.3784 4.4458 2.0607 0
M  V30 24 H 5.8427 2.7299 1.0121 0
M  V30 25 H 5.8531 0.3009 0.1947 0
M  V30 26 H 5.4615 0.9516 -1.4034 0
M  V30 27 H 4.9005 -3.6894 -3.0662 0
M  V30 28 H 0.1869 -5.7409 -0.9942 0
M  V30 29 H 0.7570 -7.8280 -2.1947 0
M  V30 30 H 2.7751 -7.9599 -3.5931 0
M  V30 31 H 4.2952 -6.0270 -3.7689 0
M  V30 32 H 2.1090 -1.6160 -0.5467 0
M  V30 33 H 2.2875 0.8310 -0.4609 0
M  V30 34 H 1.9288 4.2907 1.7589 0
M  V30 35 C 2.1531 -5.1373 3.1962 0
M  V30 36 C 2.3229 -4.1046 4.1035 0
M  V30 37 C 1.8432 -2.8372 3.7806 0
M  V30 38 C 2.0068 -1.6983 4.7444 0
M  V30 39 O 1.3968 -0.5185 4.2332 0
M  V30 40 C 0.5882 0.1823 5.0322 0
M  V30 41 O 0.3308 -0.1017 6.1748 0
M  V30 42 C 0.0753 1.3844 4.3208 0
M  V30 43 C -0.4044 2.4574 5.0402 0
M  V30 44 C -0.7866 3.6271 4.3592 0
M  V30 45 C -0.6585 3.6476 2.9397 0
M  V30 46 C -0.9447 4.8370 2.2426 0
M  V30 47 C -1.3739 5.9493 2.9189 0
M  V30 48 C -1.5376 5.9204 4.3145 0
M  V30 49 C -1.2463 4.7856 5.0224 0
M  V30 50 N -0.2441 2.5431 2.2613 0
M  V30 51 C 0.1113 1.4637 2.9146 0
M  V30 52 C 1.2132 -2.6662 2.5541 0
M  V30 53 N 1.0408 -3.6687 1.6975 0
M  V30 54 C 1.4978 -4.8828 2.0018 0
M  V30 55 H 2.5154 -6.1287 3.4147 0
M  V30 56 H 2.8171 -4.2774 5.0472 0
M  V30 57 H 3.0717 -1.4896 4.9009 0
M  V30 58 H 1.5608 -1.9470 5.7158 0
M  V30 59 H -0.4590 2.4081 6.1175 0
M  V30 60 H -0.8137 4.8554 1.1613 0
M  V30 61 H -1.5877 6.8619 2.3849 0
M  V30 62 H -1.8844 6.8043 4.8262 0
M  V30 63 H -1.3520 4.7594 6.0958 0
M  V30 64 H 0.4336 0.6163 2.3142 0
M  V30 65 H 0.8374 -1.6967 2.2414 0
M  V30 66 H 1.3466 -5.6741 1.2749 0
M  V30 67 C -3.1670 -4.9666 2.5014 0
M  V30 68 C -3.9381 -3.8721 2.8587 0
M  V30 69 C -3.5668 -2.6093 2.4048 0
M  V30 70 C -4.3775 -1.3974 2.7680 0
M  V30 71 O -3.9210 -0.2508 2.0594 0
M  V30 72 C -4.6998 0.2462 1.0923 0
M  V30 73 O -5.7976 -0.1653 0.8133 0
M  V30 74 C -4.0311 1.3886 0.4161 0
M  V30 75 C -4.7790 2.3005 -0.2946 0
M  V30 76 C -4.1338 3.3987 -0.8879 0
M  V30 77 C -2.7203 3.5171 -0.7334 0
M  V30 78 C -2.0789 4.6451 -1.2788 0
M  V30 79 C -2.7929 5.5952 -1.9618 0
M  V30 80 C -4.1803 5.4657 -2.1342 0
M  V30 81 C -4.8389 4.3898 -1.6048 0
M  V30 82 N -2.0060 2.5679 -0.0633 0
M  V30 83 C -2.6345 1.5569 0.4884 0
M  V30 84 C -2.4311 -2.5033 1.6106 0
M  V30 85 N -1.7063 -3.5600 1.2618 0
M  V30 86 C -2.0578 -4.7717 1.6948 0
M  V30 87 H -3.4266 -5.9570 2.8383 0
M  V30 88 H -4.8136 -3.9940 3.4775 0
M  V30 89 H -4.2763 -1.1785 3.8356 0
M  V30 90 H -5.4370 -1.5686 2.5421 0
M  V30 91 H -5.8488 2.1803 -0.3786 0
M  V30 92 H -1.0093 4.7581 -1.1513 0
M  V30 93 H -2.2915 6.4583 -2.3709 0
M  V30 94 H -4.7230 6.2226 -2.6782 0
M  V30 95 H -5.9066 4.2822 -1.7177 0
M  V30 96 H -2.0261 0.8184 1.0011 0
M  V30 97 H -2.0874 -1.5435 1.2398 0
M  V30 98 H -1.4353 -5.6112 1.3970 0
M  V30 99 C -2.8944 -4.4948 -2.9495 0
M  V30 100 C -2.7946 -3.4949 -3.9022 0
M  V30 101 C -1.9324 -2.4282 -3.6658 0
M  V30 102 C -1.7954 -1.3260 -4.6747 0
M  V30 103 O -1.1946 -0.1881 -4.0677 0
M  V30 104 C -0.2108 0.4409 -4.7145 0
M  V30 105 O 0.1981 0.1388 -5.8077 0
M  V30 106 C 0.3101 1.5674 -3.8968 0
M  V30 107 C 1.0938 2.5377 -4.4808 0
M  V30 108 C 1.5345 3.6234 -3.7036 0
M  V30 109 C 1.1539 3.6648 -2.3307 0
M  V30 110 C 1.5210 4.7864 -1.5601 0
M  V30 111 C 2.2622 5.7987 -2.1130 0
M  V30 112 C 2.6727 5.7377 -3.4549 0
M  V30 113 C 2.3108 4.6750 -4.2376 0
M  V30 114 N 0.4263 2.6530 -1.7741 0
M  V30 115 C 0.0154 1.6591 -2.5215 0
M  V30 116 C -1.2022 -2.4205 -2.4824 0
M  V30 117 N -1.2983 -3.3856 -1.5737 0
M  V30 118 C -2.1302 -4.4048 -1.7983 0
M  V30 119 H -3.5548 -5.3338 -3.0971 0
M  V30 120 H -3.3748 -3.5382 -4.8110 0
M  V30 121 H -2.7792 -1.0350 -5.0584 0
M  V30 122 H -1.1796 -1.6509 -5.5245 0
M  V30 123 H 1.3495 2.4708 -5.5278 0
M  V30 124 H 1.1944 4.8500 -0.5238 0
M  V30 125 H 2.5319 6.6587 -1.5203 0
M  V30 126 H 3.2622 6.5408 -3.8681 0
M  V30 127 H 2.6009 4.6258 -5.2756 0
M  V30 128 H -0.5623 0.8815 -2.0323 0
M  V30 129 H -0.5273 -1.6043 -2.2513 0
M  V30 130 H -2.2017 -5.1761 -1.0394 0
M  V30 131 Cl -0.0021 -0.4665 0.1215 0
M  V30 END ATOM
M  V30 BEGIN BOND
M  V30 1 2 3 4
M  V30 2 1 4 5
M  V30 3 1 5 6
M  V30 4 1 6 7
M  V30 5 1 7 8
M  V30 6 2 8 9
M  V30 7 1 8 10
M  V30 8 2 10 11
M  V30 9 1 11 12
M  V30 10 2 12 13
M  V30 11 1 13 14
M  V30 12 2 14 15
M  V30 13 1 15 16
M  V30 14 2 16 17
M  V30 15 1 13 18
M  V30 16 2 18 19
M  V30 17 2 5 20
M  V30 18 1 20 21
M  V30 19 2 21 22
M  V30 20 1 22 3
M  V30 21 1 19 10
M  V30 22 1 17 12
M  V30 23 1 3 23
M  V30 24 1 4 24
M  V30 25 1 6 25
M  V30 26 1 6 26
M  V30 27 1 11 27
M  V30 28 1 14 28
M  V30 29 1 15 29
M  V30 30 1 16 30
M  V30 31 1 17 31
M  V30 32 1 19 32
M  V30 33 1 20 33
M  V30 34 1 22 34
M  V30 35 2 35 36
M  V30 36 1 36 37
M  V30 37 1 37 38
M  V30 38 1 38 39
M  V30 39 1 39 40
M  V30 40 2 40 41
M  V30 41 1 40 42
M  V30 42 2 42 43
M  V30 43 1 43 44
M  V30 44 2 44 45
M  V30 45 1 45 46
M  V30 46 2 46 47
M  V30 47 1 47 48
M  V30 48 2 48 49
M  V30 49 1 45 50
M  V30 50 2 50 51
M  V30 51 2 37 52
M  V30 52 1 52 53
M  V30 53 2 53 54
M  V30 54 1 54 35
M  V30 55 1 51 42
M  V30 56 1 49 44
M  V30 57 1 35 55
M  V30 58 1 36 56
M  V30 59 1 38 57
M  V30 60 1 38 58
M  V30 61 1 43 59
M  V30 62 1 46 60
M  V30 63 1 47 61
M  V30 64 1 48 62
M  V30 65 1 49 63
M  V30 66 1 51 64
M  V30 67 1 52 65
M  V30 68 1 54 66
M  V30 69 2 67 68
M  V30 70 1 68 69
M  V30 71 1 69 70
M  V30 72 1 70 71
M  V30 73 1 71 72
M  V30 74 2 72 73
M  V30 75 1 72 74
M  V30 76 2 74 75
M  V30 77 1 75 76
M  V30 78 2 76 77
M  V30 79 1 77 78
M  V30 80 2 78 79
M  V30 81 1 79 80
M  V30 82 2 80 81
M  V30 83 1 77 82
M  V30 84 2 82 83
M  V30 85 2 69 84
M  V30 86 1 84 85
M  V30 87 2 85 86
M  V30 88 1 86 67
M  V30 89 1 83 74
M  V30 90 1 81 76
M  V30 91 1 67 87
M  V30 92 1 68 88
M  V30 93 1 70 89
M  V30 94 1 70 90
M  V30 95 1 75 91
M  V30 96 1 78 92
M  V30 97 1 79 93
M  V30 98 1 80 94
M  V30 99 1 81 95
M  V30 100 1 83 96
M  V30 101 1 84 97
M  V30 102 1 86 98
M  V30 103 2 99 100
M  V30 104 1 100 101
M  V30 105 1 101 102
M  V30 106 1 102 103
M  V30 107 1 103 104
M  V30 108 2 104 105
M  V30 109 1 104 106
M  V30 110 2 106 107
M  V30 111 1 107 108
M  V30 112 2 108 109
M  V30 113 1 109 110
M  V30 114 2 110 111
M  V30 115 1 111 112
M  V30 116 2 112 113
M  V30 117 1 109 114
M  V30 118 2 114 115
M  V30 119 2 101 116
M  V30 120 1 116 117
M  V30 121 2 117 118
M  V30 122 1 118 99
M  V30 123 1 115 106
M  V30 124 1 113 108
M  V30 125 1 99 119
M  V30 126 1 100 120
M  V30 127 1 102 121
M  V30 128 1 102 122
M  V30 129 1 107 123
M  V30 130 1 110 124
M  V30 131 1 111 125
M  V30 132 1 112 126
M  V30 133 1 113 127
M  V30 134 1 115 128
M  V30 135 1 116 129
M  V30 136 1 118 130
M  V30 137 9 21 1
M  V30 138 9 50 1
M  V30 139 9 82 1
M  V30 140 9 114 1
M  V30 141 9 18 2
M  V30 142 9 53 2
M  V30 143 9 85 2
M  V30 144 9 117 2
M  V30 END BOND
M  V30 END CTAB
M  END

$$$$
