
     RDKit          3D

  0  0  0  0  0  0  0  0  0  0999 V3000
M  V30 BEGIN CTAB
M  V30 COUNTS 131 144 0 0 0
M  V30 BEGIN ATOM
M  V30 1 Pd -0.2091 2.9695 -0.0738 0 CHG=2
M  V30 2 Pd -0.1574 -2.9333 0.5016 0 CHG=2
M  V30 3 C 3.3113 4.4111 1.8624 0
M  V30 4 C 4.2494 3.4102 1.6715 0
M  V30 5 C 3.8713 2.2583 0.9880 0
M  V30 6 C 4.8601 1.1528 0.7609 0
M  V30 7 O 4.1762 -0.0431 0.4044 0
M  V30 8 C 4.6150 -0.7476 -0.6414 0
M  V30 9 O 5.5840 -0.4670 -1.3018 0
M  V30 10 C 3.7399 -1.9248 -0.8791 0
M  V30 11 C 4.1634 -2.9461 -1.6998 0
M  V30 12 C 3.3375 -4.0699 -1.8759 0
M  V30 13 C 2.0828 -4.0969 -1.1988 0
M  V30 14 C 1.2784 -5.2472 -1.3179 0
M  V30 15 C 1.6810 -6.3044 -2.0919 0
M  V30 16 C 2.9020 -6.2637 -2.7844 0
M  V30 17 C 3.7174 -5.1704 -2.6748 0
M  V30 18 N 1.6735 -3.0411 -0.4374 0
M  V30 19 C 2.4689 -2.0121 -0.2767 0
M  V30 20 C 2.5641 2.1674 0.5216 0
M  V30 21 N 1.6718 3.1356 0.6992 0
M  V30 22 C 2.0326 4.2379 1.3608 0
M  V30 23 H 3.5679 5.3144 2.3916 0
M  V30 24 H 5.2554 3.5182 2.0463 0
M  V30 25 H 5.4362 0.9617 1.6726 0
M  V30 26 H 5.5640 1.4197 -0.0393 0
M  V30 27 H 5.1253 -2.8882 -2.1871 0
M  V30 28 H 0.3368 -5.2948 -0.7780 0
M  V30 29 H 1.0622 -7.1846 -2.1716 0
M  V30 30 H 3.1975 -7.1035 -3.3932 0
M  V30 31 H 4.6662 -5.1318 -3.1871 0
M  V30 32 H 2.1039 -1.1975 0.3408 0
M  V30 33 H 2.2191 1.2826 -0.0009 0
M  V30 34 H 1.2841 5.0108 1.4996 0
M  V30 35 C -1.7364 4.8245 3.3925 0
M  V30 36 C -1.5568 3.8776 4.3878 0
M  V30 37 C -1.0519 2.6249 4.0455 0
M  V30 38 C -0.8275 1.5832 5.1023 0
M  V30 39 O -0.3623 0.3713 4.5181 0
M  V30 40 C 0.7016 -0.2319 5.0539 0
M  V30 41 O 1.3092 0.1667 6.0155 0
M  V30 42 C 1.0125 -1.4841 4.3125 0
M  V30 43 C 1.7470 -2.4800 4.9182 0
M  V30 44 C 1.9380 -3.6988 4.2434 0
M  V30 45 C 1.3628 -3.8452 2.9474 0
M  V30 46 C 1.4523 -5.0899 2.2969 0
M  V30 47 C 2.1189 -6.1335 2.8840 0
M  V30 48 C 2.7257 -5.9781 4.1419 0
M  V30 49 C 2.6330 -4.7884 4.8120 0
M  V30 50 N 0.7140 -2.8089 2.3498 0
M  V30 51 C 0.5355 -1.6854 3.0022 0
M  V30 52 C -0.7539 2.3802 2.7106 0
M  V30 53 N -0.9114 3.3033 1.7672 0
M  V30 54 C -1.3921 4.5041 2.0886 0
M  V30 55 H -2.1280 5.8014 3.6250 0
M  V30 56 H -1.8012 4.1060 5.4137 0
M  V30 57 H -1.7646 1.3702 5.6290 0
M  V30 58 H -0.0944 1.9351 5.8399 0
M  V30 59 H 2.1442 -2.3355 5.9119 0
M  V30 60 H 0.9724 -5.2075 1.3278 0
M  V30 61 H 2.1808 -7.0887 2.3866 0
M  V30 62 H 3.2540 -6.8090 4.5825 0
M  V30 63 H 3.0767 -4.6659 5.7879 0
M  V30 64 H 0.0047 -0.8949 2.4773 0
M  V30 65 H -0.3794 1.4163 2.3804 0
M  V30 66 H -1.5094 5.2280 1.2879 0
M  V30 67 C -3.5766 -4.2927 2.5640 0
M  V30 68 C -4.4983 -3.2722 2.3959 0
M  V30 69 C -4.1067 -2.1100 1.7347 0
M  V30 70 C -5.0862 -0.9937 1.5187 0
M  V30 71 O -4.4530 0.1087 0.8779 0
M  V30 72 C -5.0529 0.6689 -0.1753 0
M  V30 73 O -6.1108 0.3181 -0.6340 0
M  V30 74 C -4.2434 1.8091 -0.6842 0
M  V30 75 C -4.8388 2.7928 -1.4431 0
M  V30 76 C -4.0846 3.9171 -1.8233 0
M  V30 77 C -2.7228 3.9831 -1.4072 0
M  V30 78 C -1.9787 5.1444 -1.6869 0
M  V30 79 C -2.5437 6.1794 -2.3851 0
M  V30 80 C -3.8723 6.0980 -2.8355 0
M  V30 81 C -4.6306 4.9934 -2.5560 0
M  V30 82 N -2.1489 2.9528 -0.7281 0
M  V30 83 C -2.8739 1.9196 -0.3722 0
M  V30 84 C -2.7981 -2.0261 1.2752 0
M  V30 85 N -1.9280 -3.0200 1.4244 0
M  V30 86 C -2.2972 -4.1350 2.0541 0
M  V30 87 H -3.8482 -5.2027 3.0740 0
M  V30 88 H -5.5059 -3.3753 2.7683 0
M  V30 89 H -5.4840 -0.6474 2.4794 0
M  V30 90 H -5.9294 -1.3351 0.9041 0
M  V30 91 H -5.8808 2.7141 -1.7155 0
M  V30 92 H -0.9538 5.2061 -1.3275 0
M  V30 93 H -1.9736 7.0713 -2.5927 0
M  V30 94 H -4.2953 6.9197 -3.3918 0
M  V30 95 H -5.6583 4.9306 -2.8785 0
M  V30 96 H -2.3637 1.1299 0.1739 0
M  V30 97 H -2.4290 -1.1370 0.7735 0
M  V30 98 H -1.5554 -4.9209 2.1585 0
M  V30 99 C -2.6056 -4.4807 -2.6339 0
M  V30 100 C -2.4341 -3.5913 -3.6817 0
M  V30 101 C -1.6105 -2.4852 -3.4944 0
M  V30 102 C -1.3987 -1.5006 -4.6066 0
M  V30 103 O -0.8631 -0.2897 -4.0851 0
M  V30 104 C 0.1772 0.2727 -4.7047 0
M  V30 105 O 0.6896 -0.1510 -5.7105 0
M  V30 106 C 0.6174 1.4925 -3.9790 0
M  V30 107 C 1.4695 2.3876 -4.5863 0
M  V30 108 C 1.8388 3.5561 -3.8978 0
M  V30 109 C 1.3175 3.7586 -2.5860 0
M  V30 110 C 1.6301 4.9573 -1.9153 0
M  V30 111 C 2.4418 5.8942 -2.5002 0
M  V30 112 C 2.9809 5.6796 -3.7790 0
M  V30 113 C 2.6814 4.5356 -4.4672 0
M  V30 114 N 0.5192 2.8224 -1.9958 0
M  V30 115 C 0.1775 1.7487 -2.6649 0
M  V30 116 C -0.9914 -2.3256 -2.2591 0
M  V30 117 N -1.1520 -3.1880 -1.2613 0
M  V30 118 C -1.9469 -4.2461 -1.4390 0
M  V30 119 H -3.2400 -5.3453 -2.7421 0
M  V30 120 H -2.9303 -3.7496 -4.6267 0
M  V30 121 H -2.3486 -1.2729 -5.1021 0
M  V30 122 H -0.7092 -1.9071 -5.3592 0
M  V30 123 H 1.8340 2.1988 -5.5850 0
M  V30 124 H 1.2099 5.1395 -0.9301 0
M  V30 125 H 2.6702 6.8127 -1.9823 0
M  V30 126 H 3.6224 6.4267 -4.2190 0
M  V30 127 H 3.0742 4.3645 -5.4575 0
M  V30 128 H -0.4623 1.0335 -2.1576 0
M  V30 129 H -0.3558 -1.4704 -2.0607 0
M  V30 130 H -2.0673 -4.9320 -0.6071 0
M  V30 131 Cl -0.1597 0.0159 0.1868 0
M  V30 END ATOM
M  V30 BEGIN BOND
M  V30 1 2 3 4
M  V30 2 1 4 5
M  V30 3 1 5 6
M  V30 4 1 6 7
M  V30 5 1 7 8
M  V30 6 2 8 9
M  V30 7 1 8 10
M  V30 8 2 10 11
M  V30 9 1 11 12
M  V30 10 2 12 13
M  V30 11 1 13 14
M  V30 12 2 14 15
M  V30 13 1 15 16
M  V30 14 2 16 17
M  V30 15 1 13 18
M  V30 16 2 18 19
M  V30 17 2 5 20
M  V30 18 1 20 21
M  V30 19 2 21 22
M  V30 20 1 22 3
M  V30 21 1 19 10
M  V30 22 1 17 12
M  V30 23 1 3 23
M  V30 24 1 4 24
M  V30 25 1 6 25
M  V30 26 1 6 26
M  V30 27 1 11 27
M  V30 28 1 14 28
M  V30 29 1 15 29
M  V30 30 1 16 30
M  V30 31 1 17 31
M  V30 32 1 19 32
M  V30 33 1 20 33
M  V30 34 1 22 34
M  V30 35 2 35 36
M  V30 36 1 36 37
M  V30 37 1 37 38
M  V30 38 1 38 39
M  V30 39 1 39 40
M  V30 40 2 40 41
M  V30 41 1 40 42
M  V30 42 2 42 43
M  V30 43 1 43 44
M  V30 44 2 44 45
M  V30 45 1 45 46
M  V30 46 2 46 47
M  V30 47 1 47 48
M  V30 48 2 48 49
M  V30 49 1 45 50
M  V30 50 2 50 51
M  V30 51 2 37 52
M  V30 52 1 52 53
M  V30 53 2 53 54
M  V30 54 1 54 35
M  V30 55 1 51 42
M  V30 56 1 49 44
M  V30 57 1 35 55
M  V30 58 1 36 56
M  V30 59 1 38 57
M  V30 60 1 38 58
M  V30 61 1 43 59
M  V30 62 1 46 60
M  V30 63 1 47 61
M  V30 64 1 48 62
M  V30 65 1 49 63
M  V30 66 1 51 64
M  V30 67 1 52 65
M  V30 68 1 54 66
M  V30 69 2 67 68
M  V30 70 1 68 69
M  V30 71 1 69 70
M  V30 72 1 70 71
M  V30 73 1 71 72
M  V30 74 2 72 73
M  V30 75 1 72 74
M  V30 76 2 74 75
M  V30 77 1 75 76
M  V30 78 2 76 77
M  V30 79 1 77 78
M  V30 80 2 78 79
M  V30 81 1 79 80
M  V30 82 2 80 81
M  V30 83 1 77 82
M  V30 84 2 82 83
M  V30 85 2 69 84
M  V30 86 1 84 85
M  V30 87 2 85 86
M  V30 88 1 86 67
M  V30 89 1 83 74
M  V30 90 1 81 76
M  V30 91 1 67 87
M  V30 92 1 68 88
M  V30 93 1 70 89
M  V30 94 1 70 90
M  V30 95 1 75 91
M  V30 96 1 78 92
M  V30 97 1 79 93
M  V30 98 1 80 94
M  V30 99 1 81 95
M  V30 100 1 83 96
M  V30 101 1 84 97
M  V30 102 1 86 98
M  V30 103 2 99 100
M  V30 104 1 100 101
M  V30 105 1 101 102
M  V30 106 1 102 103
M  V30 107 1 103 104
M  V30 108 2 104 105
M  V30 109 1 104 106
M  V30 110 2 106 107
M  V30 111 1 107 108
M  V30 112 2 108 109
M  V30 113 1 109 110
M  V30 114 2 110 111
M  V30 115 1 111 112
M  V30 116 2 112 113
M  V30 117 1 109 114
M  V30 118 2 114 115
M  V30 119 2 101 116
M  V30 120 1 116 117
M  V30 121 2 117 118
M  V30 122 1 118 99
M  V30 123 1 115 106
M  V30 124 1 113 108
M  V30 125 1 99 119
M  V30 126 1 100 120
M  V30 127 1 102 121
M  V30 128 1 102 122
M  V30 129 1 107 123
M  V30 130 1 110 124
M  V30 131 1 111 125
M  V30 132 1 112 126
M  V30 133 1 113 127
M  V30 134 1 115 128
M  V30 135 1 116 129
M  V30 136 1 118 130
M  V30 137 9 21 1
M  V30 138 9 53 1
M  V30 139 9 82 1
M  V30 140 9 114 1
M  V30 141 9 18 2
M  V30 142 9 50 2
M  V30 143 9 85 2
M  V30 144 9 117 2
M  V30 END BOND
M  V30 END CTAB
M  END

$$$$
