
     RDKit          3D

  0  0  0  0  0  0  0  0  0  0999 V3000
M  V30 BEGIN CTAB
M  V30 COUNTS 141 152 0 0 0
M  V30 BEGIN ATOM
M  V30 1 Pd 0.2276 2.2028 -0.1036 0 CHG=2
M  V30 2 Pd -0.1624 -3.9081 0.1525 0 CHG=2
M  V30 3 C 3.9053 -4.9946 0.7260 0
M  V30 4 C 4.5922 -4.2367 -0.2080 0
M  V30 5 C 3.8872 -3.2837 -0.9312 0
M  V30 6 C 4.5445 -2.3435 -1.9076 0
M  V30 7 O 4.1395 -1.0090 -1.5883 0
M  V30 8 C 4.9041 -0.3332 -0.7274 0
M  V30 9 O 5.9850 -0.7003 -0.3373 0
M  V30 10 C 4.2560 0.9312 -0.2909 0
M  V30 11 C 5.0202 1.9152 0.2979 0
M  V30 12 C 4.3967 3.0789 0.7761 0
M  V30 13 C 2.9817 3.1871 0.6359 0
M  V30 14 C 2.3366 4.3376 1.1290 0
M  V30 15 C 3.0605 5.3381 1.7230 0
M  V30 16 C 4.4551 5.2350 1.8582 0
M  V30 17 C 5.1113 4.1275 1.3952 0
M  V30 18 N 2.2607 2.1953 0.0427 0
M  V30 19 C 2.8634 1.1155 -0.3976 0
M  V30 20 C 2.5233 -3.1554 -0.6998 0
M  V30 21 N 1.8630 -3.8967 0.1849 0
M  V30 22 C 2.5461 -4.7910 0.8972 0
M  V30 23 H 4.4057 -5.7462 1.3135 0
M  V30 24 H 5.6506 -4.3764 -0.3634 0
M  V30 25 H 4.2043 -2.5261 -2.9287 0
M  V30 26 H 5.6337 -2.4236 -1.8525 0
M  V30 27 H 6.0874 1.7823 0.3960 0
M  V30 28 H 1.2606 4.4385 1.0238 0
M  V30 29 H 2.5514 6.2201 2.0791 0
M  V30 30 H 5.0027 6.0368 2.3278 0
M  V30 31 H 6.1817 4.0335 1.4929 0
M  V30 32 H 2.2365 0.3359 -0.8242 0
M  V30 33 H 1.9559 -2.4014 -1.2357 0
M  V30 34 H 2.0035 -5.3884 1.6178 0
M  V30 35 C -0.5677 -5.7449 3.9123 0
M  V30 36 C -0.0942 -4.8332 4.8402 0
M  V30 37 C 0.2927 -3.5687 4.4065 0
M  V30 38 C 0.8224 -2.5599 5.3932 0
M  V30 39 O 0.4002 -1.2407 5.0648 0
M  V30 40 C 1.1753 -0.5379 4.2411 0
M  V30 41 O 2.2611 -0.8909 3.8480 0
M  V30 42 C 0.5015 0.7118 3.8041 0
M  V30 43 C -0.3216 1.4670 4.6063 0
M  V30 44 C -0.9168 2.6221 4.0672 0
M  V30 45 C -0.6764 2.9317 2.6954 0
M  V30 46 C -1.2525 4.0928 2.1467 0
M  V30 47 C -2.0429 4.9060 2.9154 0
M  V30 48 C -2.2971 4.5934 4.2614 0
M  V30 49 C -1.7433 3.4775 4.8275 0
M  V30 50 N 0.1037 2.1263 1.9238 0
M  V30 51 C 0.6866 1.0828 2.4605 0
M  V30 52 C 0.1923 -3.2842 3.0479 0
M  V30 53 N -0.2530 -4.1686 2.1590 0
M  V30 54 C -0.6336 -5.3752 2.5793 0
M  V30 55 H -0.8779 -6.7329 4.2101 0
M  V30 56 H -0.0253 -5.0976 5.8840 0
M  V30 57 H 1.9200 -2.5981 5.4025 0
M  V30 58 H 0.4364 -2.7616 6.3936 0
M  V30 59 H -0.5032 1.1928 5.6338 0
M  V30 60 H -1.0464 4.3609 1.1156 0
M  V30 61 H -2.4594 5.8001 2.4780 0
M  V30 62 H -2.9245 5.2475 4.8463 0
M  V30 63 H -1.9225 3.2353 5.8635 0
M  V30 64 H 1.3018 0.4549 1.8234 0
M  V30 65 H 0.4765 -2.3170 2.6484 0
M  V30 66 H -0.9840 -6.0790 1.8350 0
M  V30 67 C -3.9490 -5.6678 -0.2056 0
M  V30 68 C -4.8440 -4.7165 0.2574 0
M  V30 69 C -4.3655 -3.4663 0.6390 0
M  V30 70 C -5.3035 -2.4028 1.1508 0
M  V30 71 O -4.9761 -1.1247 0.6072 0
M  V30 72 C -4.1048 -0.3767 1.2806 0
M  V30 73 O -3.6469 -0.6579 2.3608 0
M  V30 74 C -3.6999 0.8254 0.5025 0
M  V30 75 C -4.5734 1.6589 -0.1539 0
M  V30 76 C -4.0577 2.7831 -0.8254 0
M  V30 77 C -2.6466 2.9969 -0.8126 0
M  V30 78 C -2.1262 4.1464 -1.4348 0
M  V30 79 C -2.9585 5.0376 -2.0583 0
M  V30 80 C -4.3450 4.8154 -2.0961 0
M  V30 81 C -4.8845 3.7136 -1.4909 0
M  V30 82 N -1.8132 2.1138 -0.1974 0
M  V30 83 C -2.3195 1.0879 0.4431 0
M  V30 84 C -2.9966 -3.2348 0.5405 0
M  V30 85 N -2.1441 -4.1556 0.0997 0
M  V30 86 C -2.6021 -5.3503 -0.2729 0
M  V30 87 H -4.2857 -6.6445 -0.5127 0
M  V30 88 H -5.8973 -4.9416 0.3209 0
M  V30 89 H -5.2449 -2.3547 2.2460 0
M  V30 90 H -6.3288 -2.6097 0.8413 0
M  V30 91 H -5.6371 1.4771 -0.1452 0
M  V30 92 H -1.0619 4.3419 -1.3826 0
M  V30 93 H -2.5462 5.9296 -2.5027 0
M  V30 94 H -4.9804 5.5308 -2.5939 0
M  V30 95 H -5.9502 3.5443 -1.5001 0
M  V30 96 H -1.6226 0.3864 0.8941 0
M  V30 97 H -2.5553 -2.2850 0.8244 0
M  V30 98 H -1.8755 -6.0727 -0.6284 0
M  V30 99 C 0.0803 -5.0947 -3.9180 0
M  V30 100 C -0.7610 -4.2070 -4.5700 0
M  V30 101 C -1.2954 -3.1485 -3.8459 0
M  V30 102 C -2.1329 -2.0676 -4.4760 0
M  V30 103 O -1.6154 -0.7993 -4.0659 0
M  V30 104 C -0.5512 -0.3489 -4.7336 0
M  V30 105 O -0.0955 -0.8663 -5.7227 0
M  V30 106 C -0.0040 0.8815 -4.1049 0
M  V30 107 C 0.6301 1.8217 -4.8859 0
M  V30 108 C 1.1275 2.9900 -4.2859 0
M  V30 109 C 0.9602 3.1437 -2.8781 0
M  V30 110 C 1.4061 4.3322 -2.2694 0
M  V30 111 C 2.0028 5.3139 -3.0159 0
M  V30 112 C 2.1923 5.1522 -4.3982 0
M  V30 113 C 1.7609 4.0140 -5.0225 0
M  V30 114 N 0.3738 2.1658 -2.1318 0
M  V30 115 C -0.0916 1.0845 -2.7132 0
M  V30 116 C -0.9844 -3.0472 -2.4949 0
M  V30 117 N -0.1894 -3.9130 -1.8713 0
M  V30 118 C 0.3515 -4.9098 -2.5712 0
M  V30 119 H 0.5339 -5.9201 -4.4415 0
M  V30 120 H -0.9810 -4.3236 -5.6197 0
M  V30 121 H -3.1638 -2.0936 -4.1194 0
M  V30 122 H -2.1075 -2.1458 -5.5667 0
M  V30 123 H 0.7307 1.6665 -5.9498 0
M  V30 124 H 1.2437 4.4829 -1.2080 0
M  V30 125 H 2.3158 6.2281 -2.5370 0
M  V30 126 H 2.6682 5.9379 -4.9635 0
M  V30 127 H 1.8858 3.8824 -6.0861 0
M  V30 128 H -0.5162 0.3215 -2.0628 0
M  V30 129 H -1.3630 -2.2165 -1.9050 0
M  V30 130 H 1.0227 -5.5824 -2.0551 0
M  V30 131 B -0.7698 7.3545 -0.1723 0 CHG=-1
M  V30 132 F -2.0156 7.1783 0.4114 0
M  V30 133 F -0.0706 8.3530 0.4772 0
M  V30 134 F -0.0653 6.1548 -0.0596 0
M  V30 135 F -0.9162 7.6531 -1.5163 0
M  V30 136 B 1.3098 -7.6445 -0.1077 0 CHG=-1
M  V30 137 F 1.7929 -7.8772 1.1608 0
M  V30 138 F 0.6435 -8.7358 -0.6051 0
M  V30 139 F 0.3936 -6.5580 -0.0280 0
M  V30 140 F 2.3291 -7.2518 -0.9552 0
M  V30 141 Cl 0.0748 -1.0911 0.0490 0
M  V30 END ATOM
M  V30 BEGIN BOND
M  V30 1 2 3 4
M  V30 2 1 4 5
M  V30 3 1 5 6
M  V30 4 1 6 7
M  V30 5 1 7 8
M  V30 6 2 8 9
M  V30 7 1 8 10
M  V30 8 2 10 11
M  V30 9 1 11 12
M  V30 10 2 12 13
M  V30 11 1 13 14
M  V30 12 2 14 15
M  V30 13 1 15 16
M  V30 14 2 16 17
M  V30 15 1 13 18
M  V30 16 2 18 19
M  V30 17 2 5 20
M  V30 18 1 20 21
M  V30 19 2 21 22
M  V30 20 1 22 3
M  V30 21 1 19 10
M  V30 22 1 17 12
M  V30 23 1 3 23
M  V30 24 1 4 24
M  V30 25 1 6 25
M  V30 26 1 6 26
M  V30 27 1 11 27
M  V30 28 1 14 28
M  V30 29 1 15 29
M  V30 30 1 16 30
M  V30 31 1 17 31
M  V30 32 1 19 32
M  V30 33 1 20 33
M  V30 34 1 22 34
M  V30 35 2 35 36
M  V30 36 1 36 37
M  V30 37 1 37 38
M  V30 38 1 38 39
M  V30 39 1 39 40
M  V30 40 2 40 41
M  V30 41 1 40 42
M  V30 42 2 42 43
M  V30 43 1 43 44
M  V30 44 2 44 45
M  V30 45 1 45 46
M  V30 46 2 46 47
M  V30 47 1 47 48
M  V30 48 2 48 49
M  V30 49 1 45 50
M  V30 50 2 50 51
M  V30 51 2 37 52
M  V30 52 1 52 53
M  V30 53 2 53 54
M  V30 54 1 54 35
M  V30 55 1 51 42
M  V30 56 1 49 44
M  V30 57 1 35 55
M  V30 58 1 36 56
M  V30 59 1 38 57
M  V30 60 1 38 58
M  V30 61 1 43 59
M  V30 62 1 46 60
M  V30 63 1 47 61
M  V30 64 1 48 62
M  V30 65 1 49 63
M  V30 66 1 51 64
M  V30 67 1 52 65
M  V30 68 1 54 66
M  V30 69 2 67 68
M  V30 70 1 68 69
M  V30 71 1 69 70
M  V30 72 1 70 71
M  V30 73 1 71 72
M  V30 74 2 72 73
M  V30 75 1 72 74
M  V30 76 2 74 75
M  V30 77 1 75 76
M  V30 78 2 76 77
M  V30 79 1 77 78
M  V30 80 2 78 79
M  V30 81 1 79 80
M  V30 82 2 80 81
M  V30 83 1 77 82
M  V30 84 2 82 83
M  V30 85 2 69 84
M  V30 86 1 84 85
M  V30 87 2 85 86
M  V30 88 1 86 67
M  V30 89 1 83 74
M  V30 90 1 81 76
M  V30 91 1 67 87
M  V30 92 1 68 88
M  V30 93 1 70 89
M  V30 94 1 70 90
M  V30 95 1 75 91
M  V30 96 1 78 92
M  V30 97 1 79 93
M  V30 98 1 80 94
M  V30 99 1 81 95
M  V30 100 1 83 96
M  V30 101 1 84 97
M  V30 102 1 86 98
M  V30 103 2 99 100
M  V30 104 1 100 101
M  V30 105 1 101 102
M  V30 106 1 102 103
M  V30 107 1 103 104
M  V30 108 2 104 105
M  V30 109 1 104 106
M  V30 110 2 106 107
M  V30 111 1 107 108
M  V30 112 2 108 109
M  V30 113 1 109 110
M  V30 114 2 110 111
M  V30 115 1 111 112
M  V30 116 2 112 113
M  V30 117 1 109 114
M  V30 118 2 114 115
M  V30 119 2 101 116
M  V30 120 1 116 117
M  V30 121 2 117 118
M  V30 122 1 118 99
M  V30 123 1 115 106
M  V30 124 1 113 108
M  V30 125 1 99 119
M  V30 126 1 100 120
M  V30 127 1 102 121
M  V30 128 1 102 122
M  V30 129 1 107 123
M  V30 130 1 110 124
M  V30 131 1 111 125
M  V30 132 1 112 126
M  V30 133 1 113 127
M  V30 134 1 115 128
M  V30 135 1 116 129
M  V30 136 1 118 130
M  V30 137 9 18 1
M  V30 138 9 50 1
M  V30 139 9 82 1
M  V30 140 9 114 1
M  V30 141 9 21 2
M  V30 142 9 53 2
M  V30 143 9 85 2
M  V30 144 9 117 2
M  V30 145 1 131 132
M  V30 146 1 131 133
M  V30 147 1 131 134
M  V30 148 1 131 135
M  V30 149 1 136 137
M  V30 150 1 136 138
M  V30 151 1 136 139
M  V30 152 1 136 140
M  V30 END BOND
M  V30 END CTAB
M  END

$$$$
