
     RDKit          3D

  0  0  0  0  0  0  0  0  0  0999 V3000
M  V30 BEGIN CTAB
M  V30 COUNTS 141 152 0 0 0
M  V30 BEGIN ATOM
M  V30 1 Pd -0.0117 2.5840 -0.3063 0 CHG=2
M  V30 2 Pd 0.1768 -3.2906 -0.2557 0 CHG=2
M  V30 3 C 3.7161 3.5978 -2.2139 0
M  V30 4 C 4.6133 2.7389 -1.6044 0
M  V30 5 C 4.1251 1.7814 -0.7190 0
M  V30 6 C 5.0516 0.8088 -0.0471 0
M  V30 7 O 4.3283 -0.3753 0.2760 0
M  V30 8 C 4.7293 -1.1044 1.3176 0
M  V30 9 O 5.6768 -0.8410 2.0155 0
M  V30 10 C 3.8534 -2.2952 1.4853 0
M  V30 11 C 4.2525 -3.3533 2.2716 0
M  V30 12 C 3.4311 -4.4916 2.3555 0
M  V30 13 C 2.2135 -4.5018 1.6117 0
M  V30 14 C 1.4085 -5.6559 1.6304 0
M  V30 15 C 1.7808 -6.7456 2.3739 0
M  V30 16 C 2.9643 -6.7286 3.1309 0
M  V30 17 C 3.7764 -5.6273 3.1193 0
M  V30 18 N 1.8318 -3.4155 0.8855 0
M  V30 19 C 2.6120 -2.3637 0.8219 0
M  V30 20 C 2.7596 1.7566 -0.4648 0
M  V30 21 N 1.9065 2.6148 -1.0255 0
M  V30 22 C 2.3677 3.5022 -1.9026 0
M  V30 23 H 4.0435 4.3412 -2.9218 0
M  V30 24 H 5.6688 2.8019 -1.8197 0
M  V30 25 H 5.4746 1.2377 0.8712 0
M  V30 26 H 5.8834 0.5481 -0.7104 0
M  V30 27 H 5.1923 -3.3126 2.8018 0
M  V30 28 H 0.5059 -5.6761 1.0316 0
M  V30 29 H 1.1612 -7.6288 2.3739 0
M  V30 30 H 3.2323 -7.5963 3.7130 0
M  V30 31 H 4.6952 -5.6088 3.6845 0
M  V30 32 H 2.2560 -1.5135 0.2450 0
M  V30 33 H 2.3283 1.0035 0.1866 0
M  V30 34 H 1.6574 4.1617 -2.3769 0
M  V30 35 C -2.7660 -4.3257 2.6254 0
M  V30 36 C -2.6770 -3.3353 3.5869 0
M  V30 37 C -1.7168 -2.3394 3.4349 0
M  V30 38 C -1.5887 -1.2416 4.4513 0
M  V30 39 O -0.9554 -0.1058 3.8715 0
M  V30 40 C 0.0312 0.4921 4.5472 0
M  V30 41 O 0.4074 0.1705 5.6456 0
M  V30 42 C 0.5733 1.6268 3.7552 0
M  V30 43 C 1.2174 2.6771 4.3699 0
M  V30 44 C 1.6556 3.7606 3.5886 0
M  V30 45 C 1.3791 3.7417 2.1885 0
M  V30 46 C 1.7587 4.8469 1.4038 0
M  V30 47 C 2.4019 5.9136 1.9755 0
M  V30 48 C 2.6953 5.9251 3.3495 0
M  V30 49 C 2.3260 4.8728 4.1420 0
M  V30 50 N 0.7601 2.6733 1.6145 0
M  V30 51 C 0.3999 1.6545 2.3584 0
M  V30 52 C -0.8882 -2.3912 2.3219 0
M  V30 53 N -0.9882 -3.3395 1.3923 0
M  V30 54 C -1.9091 -4.2909 1.5365 0
M  V30 55 H -3.4970 -5.1135 2.7004 0
M  V30 56 H -3.3448 -3.3287 4.4338 0
M  V30 57 H -1.0006 -1.5779 5.3160 0
M  V30 58 H -2.5813 -0.9406 4.8001 0
M  V30 59 H 1.3703 2.6725 5.4388 0
M  V30 60 H 1.5214 4.8502 0.3477 0
M  V30 61 H 2.6824 6.7563 1.3631 0
M  V30 62 H 3.2067 6.7742 3.7749 0
M  V30 63 H 2.5358 4.8738 5.2003 0
M  V30 64 H -0.0291 0.8006 1.8419 0
M  V30 65 H -0.1369 -1.6275 2.1529 0
M  V30 66 H -1.9833 -5.0427 0.7621 0
M  V30 67 C -2.8626 -3.8826 -3.2576 0
M  V30 68 C -3.9609 -3.2383 -2.7162 0
M  V30 69 C -3.7866 -2.5042 -1.5485 0
M  V30 70 C -4.9138 -1.7490 -0.8945 0
M  V30 71 O -4.4183 -0.5323 -0.3415 0
M  V30 72 C -4.1684 -0.4697 0.9678 0
M  V30 73 O -4.4505 -1.3212 1.7740 0
M  V30 74 C -3.4754 0.8085 1.2847 0
M  V30 75 C -3.7100 1.4897 2.4564 0
M  V30 76 C -3.0795 2.7317 2.6590 0
M  V30 77 C -2.1697 3.1909 1.6635 0
M  V30 78 C -1.6019 4.4747 1.7849 0
M  V30 79 C -1.8804 5.2468 2.8825 0
M  V30 80 C -2.7268 4.7715 3.8982 0
M  V30 81 C -3.3241 3.5452 3.7859 0
M  V30 82 N -1.8557 2.4171 0.5862 0
M  V30 83 C -2.5184 1.3061 0.3773 0
M  V30 84 C -2.5243 -2.4844 -0.9732 0
M  V30 85 N -1.4794 -3.1418 -1.4668 0
M  V30 86 C -1.6418 -3.8101 -2.6054 0
M  V30 87 H -2.9435 -4.4592 -4.1640 0
M  V30 88 H -4.9282 -3.3029 -3.1892 0
M  V30 89 H -5.3620 -2.3562 -0.0976 0
M  V30 90 H -5.6777 -1.4757 -1.6244 0
M  V30 91 H -4.3985 1.0989 3.1903 0
M  V30 92 H -0.9756 4.8458 0.9792 0
M  V30 93 H -1.4540 6.2340 2.9656 0
M  V30 94 H -2.9208 5.3929 4.7582 0
M  V30 95 H -4.0048 3.1891 4.5434 0
M  V30 96 H -2.2861 0.7472 -0.5211 0
M  V30 97 H -2.3482 -1.8982 -0.0793 0
M  V30 98 H -0.7890 -4.3375 -3.0093 0
M  V30 99 C 2.6546 -4.7295 -3.3311 0
M  V30 100 C 2.7462 -3.6773 -4.2272 0
M  V30 101 C 2.1320 -2.4683 -3.9096 0
M  V30 102 C 2.2035 -1.2953 -4.8496 0
M  V30 103 O 1.4489 -0.1988 -4.3429 0
M  V30 104 C 0.3979 0.2345 -5.0478 0
M  V30 105 O 0.1029 -0.1700 -6.1461 0
M  V30 106 C -0.3688 1.2616 -4.2993 0
M  V30 107 C -1.3737 1.9715 -4.9194 0
M  V30 108 C -2.1202 2.8940 -4.1709 0
M  V30 109 C -1.7999 3.0707 -2.7898 0
M  V30 110 C -2.5683 3.9779 -2.0368 0
M  V30 111 C -3.5781 4.6938 -2.6217 0
M  V30 112 C -3.8807 4.5329 -3.9830 0
M  V30 113 C -3.1685 3.6470 -4.7418 0
M  V30 114 N -0.7791 2.3751 -2.2181 0
M  V30 115 C -0.1076 1.5075 -2.9380 0
M  V30 116 C 1.4498 -2.3813 -2.7033 0
M  V30 117 N 1.3521 -3.4028 -1.8576 0
M  V30 118 C 1.9436 -4.5574 -2.1525 0
M  V30 119 H 3.1177 -5.6792 -3.5435 0
M  V30 120 H 3.2820 -3.7910 -5.1569 0
M  V30 121 H 1.8167 -1.5739 -5.8379 0
M  V30 122 H 3.2398 -0.9601 -4.9593 0
M  V30 123 H -1.5844 1.8133 -5.9667 0
M  V30 124 H -2.3224 4.1336 -0.9970 0
M  V30 125 H -4.1397 5.4045 -2.0362 0
M  V30 126 H -4.6724 5.1176 -4.4245 0
M  V30 127 H -3.3860 3.5110 -5.7901 0
M  V30 128 H 0.6680 0.9387 -2.4374 0
M  V30 129 H 0.9707 -1.4554 -2.4035 0
M  V30 130 H 1.8333 -5.3688 -1.4426 0
M  V30 131 B -0.0662 6.0838 -2.3593 0 CHG=-1
M  V30 132 F -0.1065 5.1591 -1.2799 0
M  V30 133 F 1.0874 6.8262 -2.2298 0
M  V30 134 F -0.0262 5.3449 -3.5308 0
M  V30 135 F -1.1861 6.8735 -2.3122 0
M  V30 136 B -1.5748 -6.7571 -1.4400 0 CHG=-1
M  V30 137 F -1.3915 -7.9492 -0.7848 0
M  V30 138 F -2.8129 -6.2151 -1.1354 0
M  V30 139 F -0.5949 -5.8359 -0.9814 0
M  V30 140 F -1.4303 -6.8950 -2.8019 0
M  V30 141 Cl 0.0604 -0.4683 -0.2625 0
M  V30 END ATOM
M  V30 BEGIN BOND
M  V30 1 2 3 4
M  V30 2 1 4 5
M  V30 3 1 5 6
M  V30 4 1 6 7
M  V30 5 1 7 8
M  V30 6 2 8 9
M  V30 7 1 8 10
M  V30 8 2 10 11
M  V30 9 1 11 12
M  V30 10 2 12 13
M  V30 11 1 13 14
M  V30 12 2 14 15
M  V30 13 1 15 16
M  V30 14 2 16 17
M  V30 15 1 13 18
M  V30 16 2 18 19
M  V30 17 2 5 20
M  V30 18 1 20 21
M  V30 19 2 21 22
M  V30 20 1 22 3
M  V30 21 1 19 10
M  V30 22 1 17 12
M  V30 23 1 3 23
M  V30 24 1 4 24
M  V30 25 1 6 25
M  V30 26 1 6 26
M  V30 27 1 11 27
M  V30 28 1 14 28
M  V30 29 1 15 29
M  V30 30 1 16 30
M  V30 31 1 17 31
M  V30 32 1 19 32
M  V30 33 1 20 33
M  V30 34 1 22 34
M  V30 35 2 35 36
M  V30 36 1 36 37
M  V30 37 1 37 38
M  V30 38 1 38 39
M  V30 39 1 39 40
M  V30 40 2 40 41
M  V30 41 1 40 42
M  V30 42 2 42 43
M  V30 43 1 43 44
M  V30 44 2 44 45
M  V30 45 1 45 46
M  V30 46 2 46 47
M  V30 47 1 47 48
M  V30 48 2 48 49
M  V30 49 1 45 50
M  V30 50 2 50 51
M  V30 51 2 37 52
M  V30 52 1 52 53
M  V30 53 2 53 54
M  V30 54 1 54 35
M  V30 55 1 51 42
M  V30 56 1 49 44
M  V30 57 1 35 55
M  V30 58 1 36 56
M  V30 59 1 38 57
M  V30 60 1 38 58
M  V30 61 1 43 59
M  V30 62 1 46 60
M  V30 63 1 47 61
M  V30 64 1 48 62
M  V30 65 1 49 63
M  V30 66 1 51 64
M  V30 67 1 52 65
M  V30 68 1 54 66
M  V30 69 2 67 68
M  V30 70 1 68 69
M  V30 71 1 69 70
M  V30 72 1 70 71
M  V30 73 1 71 72
M  V30 74 2 72 73
M  V30 75 1 72 74
M  V30 76 2 74 75
M  V30 77 1 75 76
M  V30 78 2 76 77
M  V30 79 1 77 78
M  V30 80 2 78 79
M  V30 81 1 79 80
M  V30 82 2 80 81
M  V30 83 1 77 82
M  V30 84 2 82 83
M  V30 85 2 69 84
M  V30 86 1 84 85
M  V30 87 2 85 86
M  V30 88 1 86 67
M  V30 89 1 83 74
M  V30 90 1 81 76
M  V30 91 1 67 87
M  V30 92 1 68 88
M  V30 93 1 70 89
M  V30 94 1 70 90
M  V30 95 1 75 91
M  V30 96 1 78 92
M  V30 97 1 79 93
M  V30 98 1 80 94
M  V30 99 1 81 95
M  V30 100 1 83 96
M  V30 101 1 84 97
M  V30 102 1 86 98
M  V30 103 2 99 100
M  V30 104 1 100 101
M  V30 105 1 101 102
M  V30 106 1 102 103
M  V30 107 1 103 104
M  V30 108 2 104 105
M  V30 109 1 104 106
M  V30 110 2 106 107
M  V30 111 1 107 108
M  V30 112 2 108 109
M  V30 113 1 109 110
M  V30 114 2 110 111
M  V30 115 1 111 112
M  V30 116 2 112 113
M  V30 117 1 109 114
M  V30 118 2 114 115
M  V30 119 2 101 116
M  V30 120 1 116 117
M  V30 121 2 117 118
M  V30 122 1 118 99
M  V30 123 1 115 106
M  V30 124 1 113 108
M  V30 125 1 99 119
M  V30 126 1 100 120
M  V30 127 1 102 121
M  V30 128 1 102 122
M  V30 129 1 107 123
M  V30 130 1 110 124
M  V30 131 1 111 125
M  V30 132 1 112 126
M  V30 133 1 113 127
M  V30 134 1 115 128
M  V30 135 1 116 129
M  V30 136 1 118 130
M  V30 137 9 21 1
M  V30 138 9 50 1
M  V30 139 9 82 1
M  V30 140 9 114 1
M  V30 141 9 18 2
M  V30 142 9 53 2
M  V30 143 9 85 2
M  V30 144 9 117 2
M  V30 145 1 131 132
M  V30 146 1 131 133
M  V30 147 1 131 134
M  V30 148 1 131 135
M  V30 149 1 136 137
M  V30 150 1 136 138
M  V30 151 1 136 139
M  V30 152 1 136 140
M  V30 END BOND
M  V30 END CTAB
M  END

$$$$
