
     RDKit          3D

  0  0  0  0  0  0  0  0  0  0999 V3000
M  V30 BEGIN CTAB
M  V30 COUNTS 141 152 0 0 0
M  V30 BEGIN ATOM
M  V30 1 Pd 0.1523 2.6151 0.3575 0 CHG=2
M  V30 2 Pd 0.0685 -3.3496 0.2141 0 CHG=2
M  V30 3 C 4.1799 3.4348 1.6573 0
M  V30 4 C 4.9300 2.5534 0.8991 0
M  V30 5 C 4.2652 1.6362 0.0896 0
M  V30 6 C 5.0269 0.6406 -0.7372 0
M  V30 7 O 4.2148 -0.5121 -0.9424 0
M  V30 8 C 4.4344 -1.2587 -2.0246 0
M  V30 9 O 5.2785 -1.0303 -2.8551 0
M  V30 10 C 3.5079 -2.4226 -2.0529 0
M  V30 11 C 3.7621 -3.4943 -2.8803 0
M  V30 12 C 2.9094 -4.6114 -2.8365 0
M  V30 13 C 1.8129 -4.5863 -1.9243 0
M  V30 14 C 0.9824 -5.7175 -1.8182 0
M  V30 15 C 1.2139 -6.8196 -2.5995 0
M  V30 16 C 2.2764 -6.8378 -3.5189 0
M  V30 17 C 3.1106 -5.7591 -3.6334 0
M  V30 18 N 1.5683 -3.4887 -1.1573 0
M  V30 19 C 2.3749 -2.4551 -1.2158 0
M  V30 20 C 2.8769 1.6729 0.0573 0
M  V30 21 N 2.1623 2.5522 0.7606 0
M  V30 22 C 2.7963 3.4009 1.5652 0
M  V30 23 H 4.6481 4.1487 2.3146 0
M  V30 24 H 6.0081 2.5685 0.9434 0
M  V30 25 H 5.9489 0.3411 -0.2271 0
M  V30 26 H 5.3044 1.0672 -1.7104 0
M  V30 27 H 4.6165 -3.4796 -3.5407 0
M  V30 28 H 0.1735 -5.7074 -1.0965 0
M  V30 29 H 0.5767 -7.6851 -2.5049 0
M  V30 30 H 2.4344 -7.7146 -4.1270 0
M  V30 31 H 3.9378 -5.7678 -4.3261 0
M  V30 32 H 2.1227 -1.5974 -0.5967 0
M  V30 33 H 2.3169 0.9509 -0.5281 0
M  V30 34 H 2.2005 4.0780 2.1575 0
M  V30 35 C 2.8917 -4.9145 2.9376 0
M  V30 36 C 3.1689 -3.8638 3.7962 0
M  V30 37 C 2.5795 -2.6248 3.5559 0
M  V30 38 C 2.8551 -1.4555 4.4624 0
M  V30 39 O 2.0756 -0.3256 4.0829 0
M  V30 40 C 1.1750 0.1488 4.9504 0
M  V30 41 O 1.0418 -0.2548 6.0803 0
M  V30 42 C 0.3478 1.2204 4.3420 0
M  V30 43 C -0.5321 1.9456 5.1152 0
M  V30 44 C -1.3433 2.9121 4.5019 0
M  V30 45 C -1.2182 3.1141 3.0931 0
M  V30 46 C -2.0514 4.0676 2.4793 0
M  V30 47 C -2.9392 4.8017 3.2190 0
M  V30 48 C -3.0501 4.6141 4.6057 0
M  V30 49 C -2.2703 3.6844 5.2341 0
M  V30 50 N -0.3161 2.4002 2.3651 0
M  V30 51 C 0.4213 1.4946 2.9633 0
M  V30 52 C 1.7335 -2.5056 2.4612 0
M  V30 53 N 1.4585 -3.5260 1.6521 0
M  V30 54 C 2.0258 -4.7098 1.8737 0
M  V30 55 H 3.3304 -5.8866 3.0923 0
M  V30 56 H 3.8285 -4.0010 4.6391 0
M  V30 57 H 3.9086 -1.1656 4.3955 0
M  V30 58 H 2.6269 -1.7179 5.5030 0
M  V30 59 H -0.5971 1.7657 6.1781 0
M  V30 60 H -1.9506 4.2443 1.4189 0
M  V30 61 H -3.5510 5.5472 2.7360 0
M  V30 62 H -3.7480 5.2133 5.1693 0
M  V30 63 H -2.3399 3.5276 6.2996 0
M  V30 64 H 1.1003 0.9147 2.3481 0
M  V30 65 H 1.2640 -1.5577 2.2198 0
M  V30 66 H 1.7691 -5.5170 1.1972 0
M  V30 67 C -2.5689 -3.8172 3.6202 0
M  V30 68 C -3.6937 -3.1038 3.2458 0
M  V30 69 C -3.6471 -2.3653 2.0687 0
M  V30 70 C -4.8119 -1.5398 1.5890 0
M  V30 71 O -4.3350 -0.3340 0.9960 0
M  V30 72 C -4.2769 -0.2445 -0.3336 0
M  V30 73 O -4.7110 -1.0603 -1.1086 0
M  V30 74 C -3.5851 1.0145 -0.7222 0
M  V30 75 C -3.9610 1.7331 -1.8332 0
M  V30 76 C -3.3174 2.9555 -2.1026 0
M  V30 77 C -2.2532 3.3551 -1.2440 0
M  V30 78 C -1.6566 4.6186 -1.4245 0
M  V30 79 C -2.0608 5.4272 -2.4546 0
M  V30 80 C -3.0663 5.0098 -3.3427 0
M  V30 81 C -3.6910 3.8050 -3.1658 0
M  V30 82 N -1.8165 2.5437 -0.2392 0
M  V30 83 C -2.4871 1.4540 0.0444 0
M  V30 84 C -2.4818 -2.4084 1.3171 0
M  V30 85 N -1.4165 -3.1301 1.6537 0
M  V30 86 C -1.4520 -3.8045 2.7995 0
M  V30 87 H -2.5529 -4.4006 4.5258 0
M  V30 88 H -4.5852 -3.1193 3.8531 0
M  V30 89 H -5.4549 -1.2487 2.4214 0
M  V30 90 H -5.3944 -2.1037 0.8493 0
M  V30 91 H -4.7647 1.3865 -2.4652 0
M  V30 92 H -0.9031 4.9457 -0.7143 0
M  V30 93 H -1.6101 6.3989 -2.5817 0
M  V30 94 H -3.3583 5.6589 -4.1531 0
M  V30 95 H -4.4897 3.4935 -3.8209 0
M  V30 96 H -2.1517 0.8644 0.8892 0
M  V30 97 H -2.3995 -1.8233 0.4090 0
M  V30 98 H -0.5811 -4.3840 3.0722 0
M  V30 99 C -3.2705 -4.2130 -2.2931 0
M  V30 100 C -3.2954 -3.1811 -3.2134 0
M  V30 101 C -2.3070 -2.2027 -3.1508 0
M  V30 102 C -2.3063 -1.0670 -4.1328 0
M  V30 103 O -1.5330 0.0210 -3.6381 0
M  V30 104 C -0.6753 0.6238 -4.4677 0
M  V30 105 O -0.5225 0.3368 -5.6279 0
M  V30 106 C 0.0368 1.7185 -3.7583 0
M  V30 107 C 0.6109 2.7588 -4.4541 0
M  V30 108 C 1.2147 3.8077 -3.7388 0
M  V30 109 C 1.1716 3.7680 -2.3127 0
M  V30 110 C 1.7184 4.8408 -1.5837 0
M  V30 111 C 2.3011 5.8955 -2.2368 0
M  V30 112 C 2.3650 5.9267 -3.6399 0
M  V30 113 C 1.8288 4.9067 -4.3773 0
M  V30 114 N 0.6133 2.7105 -1.6614 0
M  V30 115 C 0.0971 1.7219 -2.3521 0
M  V30 116 C -1.3363 -2.3124 -2.1644 0
M  V30 117 N -1.3235 -3.3042 -1.2741 0
M  V30 118 C -2.2714 -4.2382 -1.3325 0
M  V30 119 H -4.0187 -4.9882 -2.3015 0
M  V30 120 H -4.0714 -3.1284 -3.9607 0
M  V30 121 H -3.3309 -0.7154 -4.2907 0
M  V30 122 H -1.8949 -1.3893 -5.0989 0
M  V30 123 H 0.5845 2.7727 -5.5335 0
M  V30 124 H 1.6579 4.8290 -0.5029 0
M  V30 125 H 2.7120 6.7136 -1.6659 0
M  V30 126 H 2.8331 6.7657 -4.1303 0
M  V30 127 H 1.8618 4.9235 -5.4556 0
M  V30 128 H -0.2752 0.8716 -1.7882 0
M  V30 129 H -0.5573 -1.5647 -2.0607 0
M  V30 130 H -2.2518 -5.0231 -0.5883 0
M  V30 131 Cl 0.0968 -0.3956 0.2755 0
M  V30 132 B 0.5696 6.0503 2.4723 0 CHG=-1
M  V30 133 F 0.7607 5.2672 3.5997 0
M  V30 134 F 1.7177 6.7578 2.1893 0
M  V30 135 F 0.3272 5.1687 1.3840 0
M  V30 136 F -0.5125 6.8786 2.6251 0
M  V30 137 B -1.7004 -6.7232 1.5838 0 CHG=-1
M  V30 138 F -1.3947 -6.9049 2.9130 0
M  V30 139 F -2.9260 -6.0921 1.4484 0
M  V30 140 F -0.7240 -5.8576 1.0182 0
M  V30 141 F -1.6842 -7.9074 0.8899 0
M  V30 END ATOM
M  V30 BEGIN BOND
M  V30 1 2 3 4
M  V30 2 1 4 5
M  V30 3 1 5 6
M  V30 4 1 6 7
M  V30 5 1 7 8
M  V30 6 2 8 9
M  V30 7 1 8 10
M  V30 8 2 10 11
M  V30 9 1 11 12
M  V30 10 2 12 13
M  V30 11 1 13 14
M  V30 12 2 14 15
M  V30 13 1 15 16
M  V30 14 2 16 17
M  V30 15 1 13 18
M  V30 16 2 18 19
M  V30 17 2 5 20
M  V30 18 1 20 21
M  V30 19 2 21 22
M  V30 20 1 22 3
M  V30 21 1 19 10
M  V30 22 1 17 12
M  V30 23 1 3 23
M  V30 24 1 4 24
M  V30 25 1 6 25
M  V30 26 1 6 26
M  V30 27 1 11 27
M  V30 28 1 14 28
M  V30 29 1 15 29
M  V30 30 1 16 30
M  V30 31 1 17 31
M  V30 32 1 19 32
M  V30 33 1 20 33
M  V30 34 1 22 34
M  V30 35 2 35 36
M  V30 36 1 36 37
M  V30 37 1 37 38
M  V30 38 1 38 39
M  V30 39 1 39 40
M  V30 40 2 40 41
M  V30 41 1 40 42
M  V30 42 2 42 43
M  V30 43 1 43 44
M  V30 44 2 44 45
M  V30 45 1 45 46
M  V30 46 2 46 47
M  V30 47 1 47 48
M  V30 48 2 48 49
M  V30 49 1 45 50
M  V30 50 2 50 51
M  V30 51 2 37 52
M  V30 52 1 52 53
M  V30 53 2 53 54
M  V30 54 1 54 35
M  V30 55 1 51 42
M  V30 56 1 49 44
M  V30 57 1 35 55
M  V30 58 1 36 56
M  V30 59 1 38 57
M  V30 60 1 38 58
M  V30 61 1 43 59
M  V30 62 1 46 60
M  V30 63 1 47 61
M  V30 64 1 48 62
M  V30 65 1 49 63
M  V30 66 1 51 64
M  V30 67 1 52 65
M  V30 68 1 54 66
M  V30 69 2 67 68
M  V30 70 1 68 69
M  V30 71 1 69 70
M  V30 72 1 70 71
M  V30 73 1 71 72
M  V30 74 2 72 73
M  V30 75 1 72 74
M  V30 76 2 74 75
M  V30 77 1 75 76
M  V30 78 2 76 77
M  V30 79 1 77 78
M  V30 80 2 78 79
M  V30 81 1 79 80
M  V30 82 2 80 81
M  V30 83 1 77 82
M  V30 84 2 82 83
M  V30 85 2 69 84
M  V30 86 1 84 85
M  V30 87 2 85 86
M  V30 88 1 86 67
M  V30 89 1 83 74
M  V30 90 1 81 76
M  V30 91 1 67 87
M  V30 92 1 68 88
M  V30 93 1 70 89
M  V30 94 1 70 90
M  V30 95 1 75 91
M  V30 96 1 78 92
M  V30 97 1 79 93
M  V30 98 1 80 94
M  V30 99 1 81 95
M  V30 100 1 83 96
M  V30 101 1 84 97
M  V30 102 1 86 98
M  V30 103 2 99 100
M  V30 104 1 100 101
M  V30 105 1 101 102
M  V30 106 1 102 103
M  V30 107 1 103 104
M  V30 108 2 104 105
M  V30 109 1 104 106
M  V30 110 2 106 107
M  V30 111 1 107 108
M  V30 112 2 108 109
M  V30 113 1 109 110
M  V30 114 2 110 111
M  V30 115 1 111 112
M  V30 116 2 112 113
M  V30 117 1 109 114
M  V30 118 2 114 115
M  V30 119 2 101 116
M  V30 120 1 116 117
M  V30 121 2 117 118
M  V30 122 1 118 99
M  V30 123 1 115 106
M  V30 124 1 113 108
M  V30 125 1 99 119
M  V30 126 1 100 120
M  V30 127 1 102 121
M  V30 128 1 102 122
M  V30 129 1 107 123
M  V30 130 1 110 124
M  V30 131 1 111 125
M  V30 132 1 112 126
M  V30 133 1 113 127
M  V30 134 1 115 128
M  V30 135 1 116 129
M  V30 136 1 118 130
M  V30 137 9 21 1
M  V30 138 9 50 1
M  V30 139 9 82 1
M  V30 140 9 114 1
M  V30 141 9 18 2
M  V30 142 9 53 2
M  V30 143 9 85 2
M  V30 144 9 117 2
M  V30 145 1 132 133
M  V30 146 1 132 134
M  V30 147 1 132 135
M  V30 148 1 132 136
M  V30 149 1 137 138
M  V30 150 1 137 139
M  V30 151 1 137 140
M  V30 152 1 137 141
M  V30 END BOND
M  V30 END CTAB
M  END

$$$$
