237
m3_l1
Pd    1.815600   -7.107600    0.143300
Pd   -7.679200    2.108000   -0.197300
Pd    5.659400    5.215000   -0.141500
 C    3.082400   -6.020000    2.528900
 N    3.216900   -7.008800    1.632300
 C    4.413000   -7.605800    1.502900
 C    5.536700   -7.161900    2.185600
 C    5.441800   -6.031700    3.008800
 C    6.623700   -5.312400    3.522100
 C    7.722600   -5.957900    4.125900
 C    8.842800   -5.247800    4.557100
 C    8.846100   -3.875800    4.335100
 O    9.856300   -3.008100    4.631400
 C    9.471900   -1.783800    4.173900
 C   10.212500   -0.609000    4.227700
 C    9.649300    0.522700    3.640300
 C    8.386500    0.488000    3.008600
 C    7.834100    1.655400    2.296400
 C    7.030200    1.453100    1.163300
 C    6.474400    2.530300    0.507100
 N    6.680000    3.796900    0.904900
 C    7.461300    4.022700    1.971200
 C    8.053600    2.986500    2.681800
 C    7.648800   -0.702300    3.005000
 C    8.194700   -1.837600    3.589400
 C    7.774700   -3.213000    3.712800
 C    6.648800   -3.927500    3.322100
 C    4.159200   -5.509000    3.227700
 H    2.087900   -5.591900    2.656300
 H    4.479900   -8.423400    0.782700
 H    6.497200   -7.643000    1.995400
 H    7.690600   -7.039100    4.277500
 H    9.684900   -5.748900    5.036000
 H   11.201200   -0.579200    4.687000
 H   10.225800    1.450000    3.635600
 H    6.845900    0.453700    0.770000
 H    5.844600    2.379800   -0.371900
 H    7.602000    5.063900    2.266900
 H    8.660900    3.230300    3.554400
 H    6.656700   -0.745300    2.553200
 H    5.819400   -3.423700    2.822100
 H    4.001200   -4.674800    3.911900
 C    3.753600   -5.200100   -0.788600
 N    3.264300   -6.409800   -1.106600
 C    3.744500   -7.036900   -2.190200
 C    4.734100   -6.475700   -2.986800
 C    5.264100   -5.215100   -2.669900
 C    6.327200   -4.551300   -3.448100
 C    7.304900   -5.293300   -4.147800
 C    8.373600   -4.680800   -4.798500
 C    8.441300   -3.294400   -4.733100
 O    9.429600   -2.507900   -5.241600
 C    9.125000   -1.222500   -4.903100
 C    9.903500   -0.098800   -5.152900
 C    9.435300    1.118900   -4.661500
 C    8.209300    1.217000   -3.971300
 C    7.717400    2.475800   -3.379100
 C    6.357400    2.808000   -3.465100
 C    5.849400    3.823700   -2.678000
 N    6.615600    4.514400   -1.818000
 C    7.942200    4.303900   -1.825200
 C    8.528400    3.314700   -2.602400
 C    7.436300    0.070800   -3.749900
 C    7.908700   -1.156300   -4.201800
 C    7.464700   -2.525500   -4.075900
 C    6.402900   -3.152300   -3.435500
 C    4.740100   -4.585200   -1.529700
 H    3.348000   -4.716300    0.101600
 H    3.317500   -8.014100   -2.423200
 H    5.071400   -7.027900   -3.864700
 H    7.252300   -6.383800   -4.147800
 H    9.138000   -5.265100   -5.312000
 H   10.846800   -0.169700   -5.695700
 H   10.027500    2.020800   -4.831300
 H    5.680600    2.247800   -4.111000
 H    4.784700    4.059100   -2.698600
 H    8.538700    4.902300   -1.134400
 H    9.602200    3.141300   -2.517200
 H    6.504300    0.130800   -3.184500
 H    5.644200   -2.552600   -2.931100
 H    5.116800   -3.621700   -1.188200
 C   -0.321700   -6.302500    1.857800
 N    0.265200   -7.430600    1.426800
 C   -0.313100   -8.607200    1.707600
 C   -1.530400   -8.690200    2.373900
 C   -2.190800   -7.519000    2.773200
 C   -3.552300   -7.479600    3.339300
 C   -4.092000   -8.500300    4.152800
 C   -5.382100   -8.422300    4.680300
 C   -6.129600   -7.292400    4.365500
 O   -7.403700   -7.007000    4.764500
 C   -7.733300   -5.804800    4.208000
 C   -8.932900   -5.114600    4.344700
 C   -9.045000   -3.894300    3.676600
 C   -7.997000   -3.372000    2.886400
 C   -8.094700   -2.097300    2.151100
 C   -7.352000   -1.930100    0.971400
 C   -7.330900   -0.711500    0.330200
 N   -8.029000    0.347200    0.774500
 C   -8.789200    0.202300    1.870900
 C   -8.849200   -0.993500    2.576000
 C   -6.797500   -4.085500    2.781500
 C   -6.673200   -5.298700    3.439500
 C   -5.618900   -6.272800    3.547100
 C   -4.336300   -6.362100    3.030700
 C   -1.517100   -6.309000    2.542000
 H    0.171100   -5.357900    1.620100
 H    0.201400   -9.505200    1.359900
 H   -1.976600   -9.673600    2.528400
 H   -3.478700   -9.368900    4.402300
 H   -5.782100   -9.212100    5.317300
 H   -9.755500   -5.511400    4.940800
 H   -9.986100   -3.345100    3.751000
 H   -6.780700   -2.749600    0.537200
 H   -6.727400   -0.575700   -0.567800
 H   -9.345300    1.080600    2.203200
 H   -9.457100   -1.036000    3.480700
 H   -5.954300   -3.691500    2.213200
 H   -3.963700   -5.578600    2.370200
 H   -1.928900   -5.357400    2.876200
 C    0.011700   -5.791200   -1.755700
 N    0.411400   -6.998000   -1.325900
 C   -0.252000   -8.086600   -1.743400
 C   -1.362500   -8.001200   -2.566400
 C   -1.832500   -6.747900   -2.990400
 C   -3.068600   -6.606600   -3.784600
 C   -3.507800   -7.652800   -4.627400
 C   -4.701100   -7.580600   -5.337800
 C   -5.457600   -6.427200   -5.178800
 O   -6.668000   -6.183300   -5.748000
 C   -7.069200   -4.957800   -5.311100
 C   -8.274500   -4.339300   -5.617500
 C   -8.509200   -3.093000   -5.042300
 C   -7.554600   -2.471100   -4.211600
 C   -7.799300   -1.163100   -3.575200
 C   -6.775100   -0.206400   -3.518900
 C   -6.920500    0.905800   -2.711800
 N   -8.014900    1.106900   -1.959000
 C   -9.059200    0.274800   -2.106300
 C   -8.996800   -0.850800   -2.916000
 C   -6.344000   -3.115900   -3.924500
 C   -6.107600   -4.376900   -4.464300
 C   -5.044300   -5.355500   -4.366000
 C   -3.842800   -5.443700   -3.666800
 C   -1.086500   -5.630600   -2.581900
 H    0.588200   -4.928100   -1.416500
 H    0.107300   -9.052500   -1.383600
 H   -1.881500   -8.922200   -2.832500
 H   -2.890200   -8.545500   -4.742000
 H   -5.031500   -8.393500   -5.985200
 H   -9.004600   -4.813000   -6.274700
 H   -9.446100   -2.576200   -5.261200
 H   -5.845800   -0.343000   -4.072800
 H   -6.112400    1.632200   -2.623200
 H   -9.943000    0.483100   -1.500700
 H   -9.852000   -1.527600   -2.946300
 H   -5.615100   -2.654200   -3.255300
 H   -3.537600   -4.631700   -3.004600
 H   -1.352000   -4.622800   -2.901600
 C   -5.854200    2.510200    2.011600
 N   -7.012900    2.976900    1.518500
 C   -7.482500    4.152700    1.962000
 C   -6.774600    4.933600    2.862700
 C   -5.516600    4.509400    3.316200
 C   -4.641700    5.368300    4.135600
 C   -5.168500    6.206800    5.141500
 C   -4.355500    7.044100    5.899800
 C   -2.997800    7.034900    5.607900
 O   -2.047100    7.800100    6.210000
 C   -0.865200    7.510500    5.602100
 C    0.362300    8.092900    5.889300
 C    1.447700    7.684300    5.120800
 C    1.321200    6.711800    4.104500
 C    2.475400    6.330300    3.269500
 C    2.597700    5.032600    2.748500
 C    3.622500    4.734200    1.869800
 N    4.525000    5.652100    1.488500
 C    4.469800    6.880900    2.023000
 C    3.474300    7.249500    2.913800
 C    0.072400    6.129200    3.850400
 C   -1.028100    6.537300    4.599200
 C   -2.440900    6.220000    4.605400
 C   -3.265700    5.372300    3.871400
 C   -5.088500    3.239400    2.901600
 H   -5.521700    1.532200    1.658200
 H   -8.434200    4.491600    1.548800
 H   -7.183200    5.902600    3.152200
 H   -6.240300    6.185500    5.349300
 H   -4.764100    7.681900    6.684300
 H    0.467600    8.839300    6.677300
 H    2.427600    8.119300    5.326900
 H    1.893700    4.245300    3.019200
 H    3.721800    3.734800    1.441900
 H    5.228600    7.595900    1.700600
 H    3.456000    8.276100    3.281300
 H   -0.049400    5.396800    3.050400
 H   -2.849000    4.752800    3.075000
 H   -4.150000    2.815400    3.259800
 C   -5.635000    3.780500   -1.288000
 N   -6.968600    3.772600   -1.128700
 C   -7.664500    4.866100   -1.469500
 C   -7.045600    6.010400   -1.958100
 C   -5.651400    6.046600   -2.120800
 C   -4.902100    7.222400   -2.604800
 C   -5.505500    8.248400   -3.367500
 C   -4.777600    9.320900   -3.881800
 C   -3.412200    9.342600   -3.620800
 O   -2.503200   10.253100   -4.073000
 C   -1.278600    9.840700   -3.634400
 C   -0.049800   10.429800   -3.909500
 C    1.086000    9.791600   -3.411300
 C    1.007900    8.598700   -2.658400
 C    2.202700    7.867600   -2.196000
 C    2.128900    6.476600   -2.015100
 C    3.201900    5.787200   -1.493800
 N    4.357600    6.392500   -1.176100
 C    4.479100    7.709800   -1.392800
 C    3.432100    8.473100   -1.895100
 C   -0.248400    8.054500   -2.365100
 C   -1.385900    8.673100   -2.861500
 C   -2.790100    8.347600   -2.849700
 C   -3.530900    7.297600   -2.329900
 C   -4.958500    4.870000   -1.789100
 H   -5.091400    2.880100   -0.994700
 H   -8.746500    4.825800   -1.331000
 H   -7.667900    6.876300   -2.186300
 H   -6.571400    8.193800   -3.596100
 H   -5.256100   10.093500   -4.484700
 H    0.026900   11.336100   -4.511300
 H    2.064900   10.213500   -3.648300
 H    1.233400    5.914800   -2.277100
 H    3.131700    4.712900   -1.308200
 H    5.436400    8.165800   -1.132700
 H    3.579000    9.547600   -2.011400
 H   -0.345700    7.156000   -1.754800
 H   -3.032200    6.548100   -1.716300
 H   -3.881900    4.780600   -1.921200
