162

Pd -0.821500 8.043600 -1.508000
Pd 1.129700 -5.601400 0.128300
C 5.269600 -1.278300 0.898100
C 5.618600 -2.432600 1.000800
C 6.105600 -3.749900 1.082000
C 7.447700 -3.970500 1.337800
C 7.971600 -5.266400 1.376400
C 7.172400 -6.359100 1.147600
C 5.801500 -6.184200 0.885900
C 4.927500 -7.264400 0.627400
C 3.605100 -7.026600 0.389400
N 3.085000 -5.774700 0.409000
C 3.870300 -4.739300 0.632600
C 5.247800 -4.870700 0.866500
H 8.100100 -3.127100 1.504900
H 9.022900 -5.400400 1.580500
H 7.582700 -7.356500 1.163600
H 5.316800 -8.269900 0.618400
H 2.908000 -7.833400 0.171200
H 3.407600 -3.754500 0.635400
C 4.880900 0.063600 0.722800
C 3.531900 0.405900 0.572800
C 3.172100 1.714000 0.338800
C 4.153100 2.710300 0.260500
C 5.500100 2.374300 0.436800
C 5.859800 1.063600 0.662200
H 2.777900 -0.361900 0.639900
H 2.135800 1.982100 0.208200
H 6.255500 3.143600 0.384900
H 6.899000 0.798600 0.786100
C 3.771200 4.039500 -0.000900
C 3.410500 5.168500 -0.241200
C 2.941200 6.472200 -0.486700
C 3.727200 7.608500 -0.248900
C 3.180200 8.860000 -0.468000
C 1.866300 8.962800 -0.900300
N 1.123500 7.878000 -1.135400
C 1.637400 6.662900 -0.952800
H 4.740200 7.498900 0.106100
H 3.760500 9.751800 -0.294600
H 1.390500 9.925700 -1.065200
H 0.993100 5.815100 -1.181200
C 0.041900 -1.504300 4.519800
C 0.208200 -2.668100 4.806000
C 0.332600 -4.003600 5.236700
C 0.244600 -4.293100 6.586400
C 0.302100 -5.612500 7.047200
C 0.437100 -6.660700 6.171400
C 0.544300 -6.413000 4.791000
C 0.681800 -7.447000 3.837400
C 0.806100 -7.138400 2.514400
N 0.822300 -5.855800 2.073100
C 0.673600 -4.863600 2.928600
C 0.511500 -5.072100 4.307800
H 0.116900 -3.487200 7.292800
H 0.227100 -5.800700 8.107200
H 0.463700 -7.678500 6.527600
H 0.688100 -8.473700 4.166900
H 0.900400 -7.910900 1.752800
H 0.688100 -3.852800 2.526500
C -0.168800 -0.152300 4.179100
C -1.061900 0.184800 3.155700
C -1.275900 1.506600 2.832900
C -0.599000 2.517600 3.524700
C 0.283500 2.182000 4.557100
C 0.496200 0.859300 4.881000
H -1.594000 -0.595900 2.635300
H -1.973100 1.772800 2.054200
H 0.799400 2.962600 5.095100
H 1.177300 0.596500 5.676100
C -0.784500 3.863600 3.152500
C -0.924700 5.008400 2.789300
C -1.021600 6.332400 2.319300
C -0.979000 7.438300 3.179100
C -1.022900 8.710800 2.637400
C -1.078600 8.862900 1.259900
N -1.120600 7.806600 0.443500
C -1.114700 6.573300 0.945900
H -0.909900 7.290200 4.245600
H -0.998500 9.580300 3.274100
H -1.089400 9.843500 0.791300
H -1.179600 5.750800 0.235700
C -4.936300 3.709400 -2.355100
C -5.281300 4.862600 -2.481700
C -5.765300 6.178700 -2.592800
C -7.098100 6.396100 -2.895600
C -7.620700 7.691300 -2.964500
C -6.830000 8.786500 -2.719100
C -5.468600 8.614900 -2.409800
C -4.604200 9.698100 -2.132000
C -3.290200 9.463400 -1.848600
N -2.769100 8.212000 -1.840500
C -3.546100 7.173900 -2.080000
C -4.915400 7.302100 -2.359800
H -7.744300 5.550800 -3.076400
H -8.664600 7.822700 -3.205200
H -7.239800 9.783500 -2.758200
H -4.994100 10.703300 -2.144700
H -2.601200 10.272700 -1.614500
H -3.083100 6.189400 -2.058500
C -4.553300 2.369600 -2.153500
C -3.208700 2.028600 -1.965400
C -2.855700 0.723100 -1.708600
C -3.839000 -0.272100 -1.644000
C -5.181000 0.062600 -1.856700
C -5.534200 1.370700 -2.106000
H -2.453100 2.795500 -2.021800
H -1.823200 0.456100 -1.549200
H -5.938000 -0.705800 -1.815100
H -6.569700 1.634700 -2.258700
C -3.463900 -1.598800 -1.361200
C -3.109200 -2.726000 -1.104100
C -2.644200 -4.027800 -0.841700
C -3.439700 -5.163800 -1.047100
C -2.895700 -6.414300 -0.814800
C -1.575200 -6.516700 -0.402600
N -0.823200 -5.432000 -0.198500
C -1.334100 -4.217500 -0.392900
H -4.457600 -5.055100 -1.388000
H -3.483300 -7.305800 -0.963000
H -1.101700 -7.479200 -0.229000
H -0.682200 -3.369300 -0.189200
C 0.317800 3.960200 -5.896600
C 0.175100 5.127600 -6.180800
C 0.079300 6.467200 -6.606100
C 0.205000 6.764000 -7.951200
C 0.175800 8.086900 -8.404600
C 0.031300 9.131200 -7.525700
C -0.113700 8.876300 -6.150100
C -0.263500 9.905900 -5.193600
C -0.424400 9.590700 -3.876100
N -0.465300 8.305700 -3.443600
C -0.307000 7.317000 -4.301400
C -0.109100 7.532100 -5.675000
H 0.340200 5.960900 -8.659500
H 0.280100 8.280700 -9.461200
H 0.026100 10.151400 -7.875800
H -0.250000 10.934600 -5.516600
H -0.529400 10.359400 -3.112200
H -0.342800 6.304100 -3.906200
C 0.503300 2.604200 -5.557200
C -0.168300 1.604300 -6.269400
C 0.021300 0.277700 -5.946700
C 0.887000 -0.073400 -4.905300
C 1.569900 0.925900 -4.202500
C 1.378900 2.251600 -4.523900
H -0.836100 1.879000 -7.071700
H -0.499500 -0.493800 -6.493000
H 2.253800 0.647600 -3.416400
H 1.915700 3.023200 -3.994900
C 1.051700 -1.422700 -4.535600
C 1.177100 -2.569500 -4.173400
C 1.261100 -3.894700 -3.704600
C 1.178800 -5.000100 -4.562400
C 1.214700 -6.273000 -4.021100
C 1.302100 -6.425700 -2.645400
N 1.381200 -5.370100 -1.830900
C 1.383200 -4.136800 -2.333700
H 1.086300 -4.851100 -5.626900
H 1.160300 -7.142100 -4.656500
H 1.308500 -7.406200 -2.176500
H 1.478900 -3.315400 -1.625700
