56
Coordinates from ORCA-job _o_1_alde1_2_ami3_2_opt_B97-3c
  C   -1.33866056120586      0.85265102453314     -1.98858058865906
  C   -1.62344467049803     -0.35247704488741     -1.18860029387745
  C   -2.36504818754049      1.53598828783711     -2.63728852324792
  C   -2.08136891520406      2.67018192381839     -3.39020270037377
  H   -3.38279884387678      1.18291561596393     -2.55576305373047
  C   -0.75713508251759      3.10598527126782     -3.48162808956178
  C   0.27925318792200      2.43366358633882     -2.83801478023036
  H   -0.52918325944289      3.98944493557696     -4.06820656729052
  C   -0.02606148960516      1.29910142065570     -2.08816217347003
  C   1.65262546648300      2.92359369262003     -2.95683511549671
  H   0.77602671291686      0.77380631719535     -1.58596556707866
  C   -3.13589334488944      3.41074595999157     -4.08739270260328
  O   -2.72167577643639     -0.84351267121020     -1.03000728388277
  C   -5.32427937613753      3.87986372984744     -4.75022588610701
  C   -6.33119617572614      4.49009000631835     -3.75510203416580
  N   -4.35971030585969      3.08815558701933     -4.01904241872908
  H   -4.84407210962415      4.71466974158683     -5.27750773891661
  C   -6.03854228450662      2.98738188330941     -5.76812747022332
  N   -7.08251663391482      5.54577416590454     -4.43806272536434
  H   -5.74587281480669      4.98809704210801     -2.97942729236451
  C   -7.18214433250153      3.39958673460663     -3.10131726445327
  C   -6.89128575670680      1.91503011252746     -5.10592261174687
  C   -7.88606746537744      2.52273052423959     -4.12725476682223
  C   4.84940018881732      1.88629173116701     -3.33107564802305
  C   3.95790221607546      2.90439986746101     -2.59344485610310
  N   6.05337028261896      2.57337719544662     -3.80254014123550
  H   4.30414658680131      1.58054200942499     -4.22622870789950
  C   5.09910741228008      0.65047766954413     -2.46415618354935
  N   2.63898843155415      2.33581142604277     -2.41848099884122
  H   3.92765748182229      3.81233719857310     -3.20992608236504
  C   4.54299310983255      3.24832193824575     -1.22188655858532
  C   5.68189576658345      1.00853678303046     -1.10413820855433
  C   4.80056545065625      2.01173690041583     -0.37324207074035
  H   -0.72729746808498     -0.80756008817099     -0.71607142558139
  H   6.54131985102562      1.97377906169476     -4.45616731013401
  H   6.69442054617583      2.72539634248829     -3.03406941029284
  H   -7.78246165762222      5.13988918775947     -5.04640246444000
  H   -7.59339801697367      6.08410462907978     -3.74949404311644
  H   -8.62797431475419      3.10975377419442     -4.67845752616561
  H   -8.44804225071693      1.73685048547776     -3.62137390716162
  H   -6.24021451771342      1.22271433106489     -4.57146273653639
  H   -7.41348906481185      1.33346527823461     -5.86757881921271
  H   -6.65931766352345      3.62591386350774     -6.40158056827441
  H   -5.29599653373990      2.53629005300124     -6.42751598733216
  H   -6.53298175501747      2.77671845080551     -2.48408002888052
  H   -7.90766360916332      3.86627487715706     -2.43099469114203
  H   -2.79880767745115      4.27332020484973     -4.68209939300532
  H   1.78033274672845      3.84298987571535     -3.54718020153438
  H   3.84601728664995      1.54223774566251     -0.13305882087278
  H   5.25783692785966      2.30030240801614      0.57468674468407
  H   5.47274605164275      3.80136715827497     -1.37709742698443
  H   3.86599001058852      3.93262604245036     -0.70911148340953
  H   5.76212327701461     -0.03354325937375     -2.99904059362588
  H   4.15099738082294      0.12916095441104     -2.32196096175590
  H   6.68638866663418      1.42662815226728     -1.22542090805492
  H   5.80841514628350      0.10682279922980     -0.50355428251970
