48
Coordinates from ORCA-job _o_1_alde1_2_ami2_1_opt_B97-3c
  C   -1.75750212580992      1.45272547328687      0.08563909612488
  C   -2.18156120050544      1.01272680595748      1.42059910430610
  C   -2.69449890368110      1.78076273103637     -0.89561603223477
  C   -2.27121739972879      2.17815449084206     -2.15128027221668
  H   -3.74951014420369      1.73963765375871     -0.66549908048777
  C   -0.90532627617105      2.25282433352569     -2.42149140103097
  C   0.03952879375064      1.93641287345442     -1.45453109108982
  H   -0.55648824279320      2.54875667252978     -3.40224091870403
  C   -0.39681101561143      1.53489944949139     -0.19907857507050
  C   1.51391349466209      2.08674310587214     -1.72206307283821
  H   0.32795104633353      1.29489392527639      0.57092119115818
  C   -3.26739942498160      2.46471723339310     -3.24344730640295
  O   -3.33236646723125      0.87538673325895      1.78579440292012
  C   -5.63905244082543      2.58409296309966     -3.59334755675190
  C   -4.93135964738053      1.60246066286587     -4.55799424663385
  N   -4.51831006948885      3.05269113135324     -2.74611359321723
  C   -6.65528241792140      1.85808927172819     -2.71918008429802
  N   -3.66591656175430      1.24130853848379     -3.92917897525866
  H   -4.71992269937745      2.09902886500335     -5.50734413541638
  H   -7.50409254778097      1.50323244747829     -3.30564736508881
  C   3.26379252769891      3.54372034135201     -1.93914794657942
  C   3.04217186754337      2.95494088887618     -3.35357969287332
  N   2.01522954901895      3.35603545373128     -1.20945112932946
  H   3.54935432348354      4.59299971629012     -1.95533105227325
  N   1.85984942472691      2.08446102405652     -3.14958443064854
  C   2.68884994129021      4.04925063667438     -4.35438474838824
  H   2.37990480269102      3.61398348689531     -5.30349827187239
  H   1.35371783017161      4.07956359220848     -1.47067708743805
  H   2.04637336589272      1.29170253014531     -1.17977829246558
  H   2.02834912420398      1.14663498161929     -3.48666118377770
  H   -4.46769594668404      4.06148590047496     -2.71928372910974
  H   -3.82658442787285      0.52895350516643     -3.22521004755537
  H   -2.78613852483344      3.11087766834596     -3.99132305012090
  H   -1.34247100501356      0.79548724814811      2.11606193601800
  H   -5.52349507745172      0.71570388565771     -4.77259464355805
  H   -6.19465484681372      1.00248094230247     -2.22669532342728
  H   -7.02837084525478      2.51850523153039     -1.93817043237352
  H   4.05324944827812      2.99239562875053     -1.42464036469952
  H   3.53727983032921      4.70963496708553     -4.53913564399203
  H   1.85811269262339      4.64998931280299     -3.98518802048328
  C   4.24900551873150      2.16458749124453     -3.83505368804999
  H   5.12469413143382      2.80545877585978     -3.93334205064725
  H   4.06233503118149      1.71755984172154     -4.81181586270039
  H   4.49716292812602      1.36591406980983     -3.13599848509032
  C   -6.30311449789249      3.73179422423161     -4.33825651344508
  H   -6.75415041887063      4.44244356008113     -3.64493848761639
  H   -7.09561434071000      3.36871710938319     -4.99240359812946
  H   -5.58092811750178      4.26723144399330     -4.95517902538312
