48
Coordinates from ORCA-job _o_1_alde1_2_ami2_2_opt_B97-3c
  C   -2.08969526111048      1.40062614384489      0.37550442542587
  C   -2.75319056920117      0.64883150658150      1.45387545651312
  C   -2.86130144078397      2.00759828846622     -0.60269334552325
  C   -2.25474310880609      2.73138337424669     -1.63425066002919
  H   -3.94089613307190      1.93210112363648     -0.58126931512365
  C   -0.87058910260905      2.82632765912897     -1.66448798793390
  C   -0.07778092400401      2.21105774920950     -0.68827843625196
  H   -0.37695069207108      3.37890188812317     -2.45285141108251
  C   -0.69632141789016      1.50513379052492      0.33259751046816
  C   1.38197054391345      2.29373486761418     -0.73412182969376
  H   -0.11522978684939      1.01920309838942      1.10608886854906
  C   -3.04658773560880      3.38332625359886     -2.67674943598306
  O   -2.17865744098093      0.07679762486364      2.35738499126114
  C   -5.00490513749922      3.92075303586016     -3.82915753581297
  C   -5.83964845427872      2.91232223027380     -4.65775780142908
  N   -4.30730101436722      3.26638776237465     -2.75486246504425
  N   -6.79217798179922      2.16434000531098     -3.83526785344358
  C   4.03213295578391      2.18773352170913     -2.94868924493983
  C   3.44636816904213      2.84989101780178     -1.67541315570125
  N   3.53890985187533      2.80754702852091     -4.18008847042475
  N   2.00747310863534      2.84059379275099     -1.69322954688048
  H   -3.86125866432578      0.63536128763617      1.38750995933286
  H   3.84030645025241      3.77549029446268     -4.21100788490574
  H   2.52662079889985      2.83747273747995     -4.13751343542257
  H   -7.46578080008407      2.80758801739363     -3.43368533236813
  H   -6.29088700260940      1.76669751347177     -3.04910148572914
  H   -2.47484069535208      3.98430003655717     -3.39804109494786
  H   1.90842989452053      1.84110360374362      0.11806182463744
  C   -4.91031897959797      1.91197141407919     -5.33267982325811
  C   5.54539383488218      2.33812267706469     -2.91355244001460
  H   3.77150288645813      3.89398744609923     -1.66755632962705
  H   3.86101331308901      2.36437714036563     -0.78007505525088
  H   5.98197230379427      1.88776138992773     -3.80203598610890
  H   5.97209409581724      1.85532735723244     -2.03604180742164
  H   5.83574173447703      3.38951538067541     -2.89081840350146
  H   -5.70056352528538      4.63755192312195     -3.38428879107939
  H   -4.32952440673143      4.47912680466465     -4.49348242862218
  H   -4.17931637181199      2.41879525047982     -5.96263350078299
  H   -5.48742832572279      1.22825901733910     -5.95059199196073
  H   -4.36577646481190      1.32242170858911     -4.59667620016579
  C   -6.62092600910583      3.68970075882645     -5.70577978982443
  H   -7.28994775171018      4.41484935031675     -5.23989768845814
  H   -7.22490988877312      3.00717558593921     -6.29926786797826
  H   -5.95416780354451      4.23223728437178     -6.37399027049401
  C   3.65279312004862      0.71308482619786     -2.97786502448060
  H   2.57282859702312      0.58630843355886     -3.03778343927885
  H   4.00070053479562      0.20042907454287     -2.08108075266385
  H   4.09676110293071      0.23387284385975     -3.84711072202580
