45
Coordinates from ORCA-job _o_1_alde1_3_ami4_2_opt_B97-3c
  C   -0.84529722863306     -0.34454123987042     -1.07632204745819
  C   -0.92273484342130     -1.68147072366067     -0.45057762290168
  C   -1.93392977280782      0.51221979583920     -1.15587127975007
  C   -1.82029887430052      1.76149751608889     -1.77218570373420
  H   -2.90019047159186      0.22221580634766     -0.77588585633387
  C   -0.60461082882581      2.14617295925641     -2.31777148051485
  C   0.49996809747043      1.29360460990669     -2.26560772252191
  H   -0.49024662790173      3.10917750220364     -2.79697250954414
  C   0.36347516416680      0.05021361842692     -1.65875473115862
  C   1.78923341256362      1.68781037061473     -2.83245158991601
  H   1.21391643962020     -0.62180181229957     -1.62444528720468
  C   -2.97126092520639      2.66122330942024     -1.85090673631724
  C   -3.71758200822188     -1.43118744793487      1.44117818288023
  C   -2.20913968591964     -1.15199150705922      1.48721582750117
  N   -4.14209973414024     -2.76256252657263      1.83874031088468
  N   -1.49281817640587     -2.06263378522445      0.62045866421771
  H   -1.86221305618037     -1.35309279740872      2.50420955445093
  C   -5.17462702790964      3.33179146053882     -1.42842370054497
  C   -6.42901104328562      2.58647370302619     -1.85544542965473
  N   -4.07627881983322      2.40610546422672     -1.28296096630089
  N   -6.82920230986218      1.64617937387647     -0.81796080687768
  C   3.29658156633087      3.11939924185619     -3.88869964054493
  C   3.83433398340855      4.38259339978841     -3.22847269839378
  N   1.97913703092942      2.81225984848023     -3.38919169347272
  H   4.01722277948453      2.30445111265924     -3.74702445553928
  N   5.12627307657509      4.73683161690905     -3.80659981859597
  H   4.99636101643834      5.11176635038650     -4.73818158740256
  H   5.55680059244626      5.47240794813514     -3.26256431159159
  H   -3.91306026314599     -2.91380924084797      2.81389568361264
  H   -3.60317114583892     -3.44428676927343      1.31922779912048
  H   -7.60499011257345      1.08085927778770     -1.13664430579098
  H   -6.05843931490712      1.01495442857707     -0.63832061793346
  H   -0.37286541128659     -2.45596458299528     -0.99085904736611
  H   -2.81650113013650      3.58069985661997     -2.43346041208772
  H   2.59562811250363      0.94510497026218     -2.74153704528837
  H   -2.02621448783800     -0.09256105427759      1.28005712582886
  H   3.21251435857086      3.30079754369995     -4.96486247432369
  H   -4.95557092388411      4.14118532779858     -2.13851424683386
  H   -5.36828237429193      3.77721307327928     -0.44968683762534
  H   -6.23741289638729      2.12736129129879     -2.83684427366536
  H   -7.22731458609027      3.31730065486114     -1.99691656412834
  H   -4.07501151770789     -1.25153666927146      0.42538090465446
  H   -4.21899186404152     -0.69958153328288      2.07617057986049
  H   3.06818622298545      5.16445286811645     -3.29948208543562
  H   3.97996055563130      4.18095289322853     -2.16683439093310
