99
Coordinates from ORCA-job _o_1_alde1_3_ami1_1_opt_B97-3c
  C   -1.82596471536725      2.03516070661951     -0.63954849762281
  C   -2.21777572743851      1.99557872849124      0.81117377218158
  C   -2.75425920105355      2.33328097014522     -1.62810447431945
  C   -2.38904541217721      2.32137724800636     -2.96987279891586
  H   -3.77144652853707      2.59617584178162     -1.36847745564909
  C   -1.07966417800425      2.00347661192064     -3.31413272435897
  C   -0.14218339927216      1.69602495420337     -2.33609107100567
  H   -0.78726537879300      1.99955548616587     -4.35807128381086
  C   -0.52476101073641      1.71696481746110     -1.00217837890574
  C   1.29390085227077      1.40929627886002     -2.68031047050085
  H   0.20169961778601      1.48801784520201     -0.23592328848057
  C   -3.41476935864167      2.58164097461926     -4.03947968119135
  C   -2.18185922292158      0.68427632983995      2.72857587582087
  C   -1.31005981831289      1.93634437928628      3.00462231700989
  N   -2.38385741813857      0.62652515984028      1.27842515379133
  H   -3.16007156998498      0.84674845155678      3.18838511316906
  C   -1.62435131606687     -0.61186145813838      3.31783495254918
  N   -1.17149853283282      2.55188597014159      1.68543019585268
  H   -0.31959329264454      1.61448672153287      3.34280861358555
  C   -1.86912274816643      2.83964042977568      4.11426214017169
  H   -1.39338436821588     -0.38111350660961      4.36297186174291
  C   -0.33353982131519     -1.07777606419037      2.65284140667866
  C   -2.66884253760489     -1.72038093627847      3.30583745378478
  H   -2.05450960604751      2.17748192561124      4.96828602740264
  C   -3.18114859062551      3.52194958309588      3.75345037895274
  C   -0.83482506386172      3.86906687835656      4.55180294964273
  H   -2.96515101297059     -1.96332349215213      2.28643257079312
  H   -3.56715327171044     -1.42404765019157      3.84722693331627
  H   -2.28274003819512     -2.62795822807875      3.76955870838227
  H   0.13412966874091     -1.86301689548928      3.24485150452061
  H   0.39157543873944     -0.27412238185099      2.53756094564717
  H   -0.51755149893698     -1.50106470457506      1.66507403689333
  H   0.10062966509272      3.39348408041504      4.84509774244984
  H   -1.19281231674424      4.45471760629833      5.39782605937171
  H   -0.60737997696526      4.57162679273641      3.74833921549311
  H   -3.55788860394155      4.09770947439043      4.59769322893371
  H   -3.95655651207421      2.81452530901771      3.46765464166690
  H   -3.05060526048390      4.21839563689425      2.92478997423852
  C   -5.66425789737590      3.24892982268737     -4.39509375623993
  C   -5.39562892895071      1.84126739873770     -4.98375722588814
  N   -4.45693875820744      3.52873323837912     -3.61572489857490
  H   -6.51515950789770      3.19176498253908     -3.70849501666385
  C   -6.04118419931385      4.29483698693661     -5.45501079059892
  N   -4.14745332425730      1.36950830944405     -4.37858764349026
  H   -5.21225481548134      1.95352315415667     -6.05550648994085
  C   -6.55976168998124      0.86251076034430     -4.83201799904495
  H   -6.85088968466403      3.84316171821629     -6.04051456993143
  C   -4.90893416677808      4.64437125704505     -6.41056529845716
  C   -6.59927503476131      5.55397913543074     -4.80326968375837
  H   -7.44456601747507      1.40382562392650     -5.18322765563354
  C   -6.81847280925138      0.44509676227659     -3.38864118179674
  C   -6.37617272938065     -0.35802471191428     -5.72435340448237
  H   -6.95168077821616      6.26480722674418     -5.55027041133812
  H   -5.84040382232782      6.06334207773380     -4.20695788559278
  H   -7.43366107745416      5.32196478598582     -4.14183418253425
  H   -5.25269054235202      5.34264502620821     -7.17254606190713
  H   -4.50923689388431      3.77209693325241     -6.92310732946906
  H   -4.08196596701672      5.12486358166242     -5.88713682663805
  H   -5.47940371488934     -0.90963481722663     -5.44613760805214
  H   -6.27440465782845     -0.07068300452153     -6.77084346339829
  H   -7.22676551810189     -1.03477652464935     -5.64455736024559
  H   -6.06291580710210     -0.25396232609318     -3.02959307741146
  H   -7.77709775348203     -0.06489193120477     -3.30772228620651
  H   -6.83788055533330      1.29320363910976     -2.70622382257273
  C   3.29967709774786      0.55044178509457     -1.73403047777990
  C   3.48468199970361      2.01739297710884     -2.19568623089947
  N   1.85800060677665      0.33482446032662     -1.84671803844607
  H   3.58028213515875      0.47200479990977     -0.67848199740533
  C   4.19137339658839     -0.44657332028910     -2.48809062562326
  N   2.14083098348306      2.56137505767154     -2.40505329922750
  H   3.98866414491561      2.00524706671290     -3.16571854675993
  C   4.34483491023062      2.86490375023778     -1.25749530260618
  H   5.20594876648154     -0.03451145293306     -2.43380745483154
  C   3.82789739846010     -0.61103704184564     -3.95693568154723
  C   4.21035224601392     -1.79830176917844     -1.78583169175479
  H   5.24796923366598      2.27327438392403     -1.07464034210593
  C   3.68948939963842      3.13334644220082      0.09314490060485
  C   4.76917284361531      4.16856772974037     -1.92076566472808
  H   4.50498888240624     -1.69829425677857     -0.74155388220065
  H   4.90632230439325     -2.48518798149020     -2.26632146196103
  H   3.22675692508292     -2.27049119136951     -1.80466689129781
  H   3.83194969428031      0.33315378471870     -4.49733490763043
  H   2.83716551708498     -1.05108613260033     -4.07333356443221
  H   4.53274540264732     -1.27624600095904     -4.45379342979838
  H   3.90200327055953      4.78229089025431     -2.16042622175485
  H   5.30720131610723      3.98285502377202     -2.85023010834662
  H   5.42100126269138      4.74754544431158     -1.26676067078118
  H   4.41763296775494      3.54332214630252      0.79129232973565
  H   3.27140899727656      2.23417464167181      0.54221063230236
  H   2.88712641117124      3.86732255000430      0.01450941221676
  H   1.62015093353016     -0.58140825716058     -2.20118227338975
  H   1.36917918209608      1.17935023997965     -3.75142115474446
  H   1.80955553249174      2.96371262751206     -1.53637823072625
  H   -1.20474844604591      3.56205604185174      1.71558317163430
  H   -3.17644766424620      2.51582050396012      0.93617146672223
  H   -1.63549092398965      0.08542648703122      0.86157943481613
  H   -4.14932691116531      4.48843735313925     -3.69604010542965
  H   -4.35843073151094      0.90493883745562     -3.50265396705114
  H   -2.89863536611356      2.92285369637504     -4.94711582954990
