99
Coordinates from ORCA-job _o_1_alde1_3_ami1_2_opt_B97-3c
  C   -2.13933174457335     -1.00432601988186     -1.24678224752741
  C   -2.70900895647207     -2.05903676465183     -0.37882037785788
  C   -2.96260337973487     -0.38557027960409     -2.17479127513470
  C   -2.48354885830119      0.65662706292496     -2.97614208162850
  H   -3.99722739634490     -0.68190308866762     -2.28136993636996
  C   -1.15813242551936      1.05383264166969     -2.85553954463828
  C   -0.30657625642804      0.41372619987113     -1.95301113319996
  H   -0.76439479508125      1.85762631554929     -3.46457448294153
  C   -0.79923299292023     -0.61851215998138     -1.16164554943669
  C   1.09056969669154      0.80906134198679     -1.78828704144746
  H   -0.14451298988957     -1.12719560753081     -0.46403812992176
  C   -3.35565197226430      1.33147475371879     -3.93639076678417
  C   -0.81551374130211     -1.86164190773634      2.44815750218549
  C   -1.98171616559044     -1.18702101612472      1.70820763782455
  N   0.04134671829665     -2.51960869006512      1.45343243585098
  H   -1.25343619574537     -2.59506944057578      3.13560948159987
  C   0.01039372396818     -0.88387668798774      3.29774489564657
  N   -2.64508078346122     -2.18510446369825      0.88515756993887
  H   -1.56708864292740     -0.37894235940949      1.10471361977963
  C   -3.03310093346451     -0.53964141972209      2.63294583407118
  H   -0.68505650811023     -0.41792489273043      3.99841223232980
  C   0.67696370241891      0.22166719907636      2.48743480239186
  C   1.04299826533661     -1.62413948792397      4.14239924503659
  H   -2.49867118960942      0.22054472623909      3.20746344309929
  C   -3.68589621033299     -1.50576794981755      3.61086530283185
  C   -4.08151153099376      0.18832777079226      1.80098856408582
  H   1.49278042259493     -0.95272954051791      4.87252266304703
  H   1.85945389117360     -2.01877121916562      3.53646370457868
  H   0.59461555862046     -2.45366364420428      4.68947383117356
  H   1.27244756561650      0.86389166117990      3.13566670069307
  H   -0.04532118718279      0.85693746594895      1.97825533430856
  H   1.33894534285897     -0.19615757991686      1.73147879797043
  H   -4.69228611801266     -0.51323557395620      1.23530592227901
  H   -3.62065770718584      0.87502924500146      1.09088149922041
  H   -4.74718242456906      0.76651993366133      2.44037155404991
  H   -2.97403470884377     -1.91523219172001      4.32563611672188
  H   -4.14706743307453     -2.33794635238408      3.08363910638827
  H   -4.46103179069650     -0.99692666470987      4.18363822914893
  C   -5.36669937159764      1.76569189743097     -5.04963609733265
  C   -6.49952167731367      2.49211803669127     -4.30647746161902
  N   -4.58585013412884      1.04496726195894     -4.06609476370365
  H   -4.75180162257195      2.53554868460472     -5.53425351783275
  C   -5.83592486658043      0.78830274323371     -6.14465919559998
  N   -5.88018838552340      3.44193896384159     -3.37751777279131
  H   -7.06868433160980      1.72043691776224     -3.77190728410524
  C   -7.48764716359502      3.21560233700092     -5.23302851193748
  H   -6.40364824728085      1.38457985810742     -6.86149859266798
  C   -6.73997188424797     -0.32189076505470     -5.62811527697979
  C   -4.63927806174970      0.21323279130382     -6.89081746739328
  H   -7.94566330925953      2.44488508802834     -5.85644896883384
  C   -6.83294703827838      4.24317018264283     -6.14635453141392
  C   -8.61720004516828      3.85376011413289     -4.42980058504682
  H   -4.96486583655747     -0.36748166473876     -7.75304296206515
  H   -4.05194691685427     -0.44418412614658     -6.25168280741446
  H   -3.97920183880425      1.00185229776680     -7.25340584203302
  H   -7.02750572361168     -0.98694593402067     -6.44246906262072
  H   -7.65528919434046      0.06576976993259     -5.18491110005324
  H   -6.23147966075862     -0.91558386536360     -4.87139126199413
  H   -9.05311680706536      3.15039984627311     -3.71902460036427
  H   -9.41509723696390      4.19265804926905     -5.08933464519773
  H   -8.27420038236803      4.72834592264667     -3.87664383596906
  H   -6.14223414428706      3.78638162689939     -6.85301590938049
  H   -6.27553777255578      4.97388410835990     -5.56474052714345
  H   -7.58711275288045      4.77337561135447     -6.72773238775888
  C   2.98009735250316      2.14503085266317     -2.05265723457838
  C   3.03973127248488      3.40886342266001     -1.13562432865079
  N   1.59853332529652      1.83222851218150     -2.34242622304861
  H   3.43754903362589      1.31409358374546     -1.50231461318270
  C   3.79431287593386      2.27391020871581     -3.35144667317446
  N   2.00485051125863      4.40403820722198     -1.40585349620410
  H   4.00064830714562      3.89764100237669     -1.32165694759738
  C   3.01765034949477      3.00574627376146      0.35055682688526
  H   4.82582991327909      2.43940626580138     -3.02414393919933
  C   3.39264126219262      3.44274497914891     -4.24014649360257
  C   3.75789037088513      0.96673199298328     -4.13222634289151
  H   2.17909196695845      2.31385540723615      0.49197874762572
  C   2.79535299436539      4.20103164407664      1.26807263058826
  C   4.29984975506822      2.29027385056602      0.76102370010807
  H   2.75863343145119      0.77214050255986     -4.51923372118570
  H   4.04032251541707      0.11847749610555     -3.50779104968131
  H   4.44320687784785      0.99988156876286     -4.97855139779217
  H   3.94971876126435      3.41678206582076     -5.17675074418369
  H   3.60609051645379      4.40492415384134     -3.77633519298282
  H   2.33231417758439      3.40187227603481     -4.48368700881071
  H   5.15543505862845      2.96146822490669      0.66868902403032
  H   4.51035133486276      1.40488473537675      0.16451137133656
  H   4.24599226504255      1.97182610993920      1.80135606514752
  H   3.58608878385990      4.94018999792561      1.13368105954174
  H   2.80800556752647      3.88413892752185      2.31129704816125
  H   1.85375208591931      4.69996884725680      1.06639922638978
  H   1.10211169766637      3.94607757814466     -1.34912411481878
  H   2.07640852017336      4.70146342228048     -2.36902059233709
  H   -0.50591725507498     -3.23551128705090      0.99111394682536
  H   0.79010797227352     -3.00909427419711      1.92609334394897
  H   -6.59297268484848      3.85269655886520     -2.78858080355626
  H   -5.26928155109571      2.93010137156411     -2.75346097675855
  H   -3.30414018296852     -2.81109677184534     -0.90095614345876
  H   -2.88129504123119      2.11584710548933     -4.54131985306900
  H   1.68089117582015      0.16064339048678     -1.12439283371890
