63
Coordinates from ORCA-job _o_1_alde1_3_ami2_1_opt_B97-3c
  C   -1.78482289136357      1.11598180425469     -0.96343451847539
  C   -2.17369147380397      0.35053989308484      0.26912246301660
  C   -2.75086926314479      1.58185344832563     -1.84445710972607
  C   -2.38566858084878      2.24361989923147     -3.01057721398750
  H   -3.80247337904829      1.45421145014576     -1.62360225141719
  C   -1.03747428099008      2.43938970635140     -3.28460430710554
  C   -0.05977361825515      1.97854416062320     -2.41207387261684
  H   -0.74607700964695      2.96124898630879     -4.18923392985380
  C   -0.44342755211011      1.31791508344183     -1.25464222103469
  C   1.39718320722768      2.24564244314496     -2.66943160767371
  H   0.31218537726133      0.96230051360934     -0.56940616558855
  C   -3.42936715460737      2.68376768132004     -3.99954536421548
  C   -1.85311917723882     -1.59298559927241      1.44509976629368
  C   -1.10693077648220     -0.50574127015182      2.25096346869293
  N   -1.97861276560594     -1.08307488359466      0.08707449380083
  N   -1.36270102260409      0.71251202374490      1.45029911529677
  C   -5.81066649817192      2.79430348074443     -4.28387614327441
  C   -5.09548686838318      2.03172223981667     -5.42627533335443
  N   -4.69020340532052      3.10844217998233     -3.36808913451185
  N   -3.80629613453456      1.60089092561098     -4.90071739545263
  C   3.51930477624790      1.59727008739137     -1.73085611823561
  C   3.32172402084039      3.12912745891211     -1.78064360984399
  N   2.25999963664969      1.09644778840555     -2.32569504012657
  N   1.88530662742626      3.35581591026738     -1.85877023421999
  H   2.43847961345355      0.52645751813314     -3.14054530690503
  H   1.52293426308891      2.52581207363761     -3.72361332227408
  H   1.47208016313854      3.27827881698967     -0.93642629277554
  H   -3.24138161776056      0.51574881781259      0.46318042579615
  H   -1.11035128277427     -1.22279642784180     -0.41728659035725
  H   -4.66766528412155      4.09119914483114     -3.13228371452009
  H   -3.92397643195794      0.76065296001704     -4.34452780778335
  H   -3.00474108649411      3.48506836887210     -4.62112434002742
  H   -4.91990739440587      2.70477043076570     -6.26819756732624
  H   -5.66849441319400      1.18395345301815     -5.79486660898379
  H   3.78992943772304      3.53351883511877     -2.68108947047210
  H   3.75092904175890      3.64489691573490     -0.92411185384970
  C   0.39366871136846     -0.78011577429171      2.27757870539769
  H   0.77633305000285     -0.92182101160921      1.26745112070596
  H   0.62717134296155     -1.67148614367449      2.86211404266228
  H   0.92745147757686      0.06496024552150      2.70972939796367
  H   -1.82834651448799      1.42142668515434      1.99924783238696
  C   -1.64693024359681     -0.37194624547443      3.66549578402716
  C   -6.50065407301318      4.05153795273876     -4.79179707015880
  H   -7.29002118685348      3.80651535381537     -5.50233562819985
  H   -5.79109230764746      4.70919008812718     -5.29464175269041
  H   -6.96011182299351      4.60780188301373     -3.97408234056617
  C   -6.80566097970155      1.89378209314628     -3.56013281336235
  H   -6.32183494922105      0.97032139918908     -3.24381257565510
  H   -7.65235706900119      1.63849995951649     -4.19876664000471
  H   -7.18623836278713      2.38526226793259     -2.66584770106400
  C   4.73424136598882      1.15449219543207     -2.52991039455793
  H   4.66832613561310      1.50132177041769     -3.56167293469189
  H   4.82610724575345      0.06800715761601     -2.53979255537159
  H   5.65201458365343      1.55590670159197     -2.10052556774159
  C   3.62124194408252      1.10537447369416     -0.28996355485583
  H   3.60366081310330      0.01708170954924     -0.25787269987192
  H   2.77608534324126      1.45982984775107      0.29900760600069
  H   4.54032662908155      1.44950805016458      0.18688476141550
  H   -1.48129317563676     -1.28551473481562      4.23632759857198
  H   -2.71921368268095     -0.17397874282689      3.65504535058302
  H   -1.15480326699179      0.44111105920858      4.20018910518735
  H   -1.34830885946222     -2.55670528579153      1.45528763345040
  H   -2.85429779042726     -1.73749951419436      1.85748187201389
