36
Coordinates from ORCA-job _o_1_alde1_2_ami4_2_opt_B97-3c
  C   -1.61057963871800      0.79654957212579     -1.16037217316352
  C   -2.19740484858968     -0.11927495941109     -0.16474880942133
  C   -2.44453453828073      1.68586616363272     -1.82753105475148
  C   -1.92356280794478      2.57141349467889     -2.76940145893431
  H   -3.50754798374089      1.70471739290143     -1.62445768000124
  C   -0.55433909531112      2.54763274126298     -3.02102601775520
  C   0.29456329936773      1.65273643372075     -2.36606090294723
  H   -0.13728039558431      3.23665931890509     -3.74723431435587
  C   -0.24368573771692      0.77578834868364     -1.43092330544328
  C   1.72436527021253      1.66051655743643     -2.68216611836440
  H   0.39966605715782      0.07854476423372     -0.91374018821567
  C   -2.77966638741728      3.51030696343430     -3.49224295486211
  O   -1.57705133234523     -0.93122281311849      0.48880394944239
  C   -4.80763806277287      4.47665414016685     -4.12871922135846
  C   -5.85902700701742      3.74018596784814     -4.96820077838379
  N   -4.03996956300273      3.54032157977696     -3.34835278171808
  N   -6.82454097617405      2.94228726141447     -4.23426945924625
  C   4.77078837662116      1.32321459442874     -1.26962603622271
  C   3.94568297666081      0.98397769181568     -2.50243969895182
  N   4.38534071125314      2.63125377143326     -0.75257611897143
  N   2.55253460410112      0.86268164257410     -2.14623518491151
  H   -3.29617458611316     -0.01417138630229     -0.04271446752143
  H   4.99759351499989      2.89813367072816      0.00734100781837
  H   3.45401524783041      2.56986903690771     -0.35991605037990
  H   -7.36469398571773      3.53821132628277     -3.61814440586061
  H   -6.32578713030826      2.29753297782112     -3.63390145046073
  H   2.04342514061499      2.40923270813419     -3.42033430922158
  H   4.66625714427778      0.50464218863231     -0.54600446755734
  H   5.81914778322201      1.36292335245252     -1.56787469479776
  H   4.28151823456220      0.01890142916970     -2.88863695327728
  H   4.11774215525832      1.74558444625319     -3.27415437650185
  H   -2.25986086645066      4.19473896831354     -4.17940578922234
  H   -5.34022141312100      3.08921873341691     -5.67446956009574
  H   -6.39578564094591      4.47927608745225     -5.56543393667355
  H   -5.32694776516399      5.14433812748702     -3.43503195193067
  H   -4.17880328522171      5.09788313405200     -4.78500606761134
