57
Coordinates from ORCA-job _o_2_alde1_3_ami4_1_opt_B97-3c
  C   -3.74084612785101     -1.07565950239800     -0.28339821694730
  C   -3.10103776732339     -0.71506327638662      0.98364988587697
  C   -4.23299289988642     -2.35519280029034     -0.51190080651056
  C   -4.72641597011766     -2.70011125439945     -1.76857366057983
  H   -4.21856977485274     -3.08883470907363      0.28088962546882
  C   -4.69907962534887     -1.77768763861959     -2.80790743398876
  C   -4.20773227718353     -0.49110655001061     -2.59740081724131
  H   -5.04212627850997     -2.04830211119364     -3.79797602841378
  C   -3.75877411770235     -0.14443042125715     -1.32496212065507
  C   -4.04764998997244      0.45443504620019     -3.70116291263858
  H   -3.35983687862711      0.84899178251216     -1.15408409660476
  C   -5.24715466186897     -4.05341604780249     -2.02975126989037
  H   -3.76585604111253      1.47646324841166     -3.41753775821487
  H   -2.87360611088728      0.35061656701040      1.11700127460861
  C   -0.01114763358889      0.14088748920079     -0.76208945546277
  C   -0.16169715777117     -0.80221592525268      0.34335596356514
  C   -0.44220734141924     -0.22655241747407     -2.03485561890123
  C   -0.45594331647770      0.69839388352272     -3.07836534854149
  H   -0.82555143969030     -1.22649459116910     -2.20150747284959
  C   0.03308852512875      1.98369254169597     -2.85122452372111
  C   0.49179116466780      2.35476432632995     -1.59459657992944
  H   0.05708900375337      2.69390472908901     -3.66479245196890
  C   0.45352580203211      1.44048820635641     -0.55356864055790
  C   0.93384077558299      3.77031925545649     -1.34420825626116
  H   0.77142205204623      1.72510300161778      0.44042467448873
  C   -1.09537810501053      0.33826811813384     -4.34268557534758
  H   -1.32007178643761     -0.72845920879451     -4.47711145147613
  C   -0.45477007344995     -1.40554383199329      2.56558244109234
  C   -1.93418928523403     -1.16815811366806      2.93959816689195
  N   -0.06836648985070     -0.44813100341075      1.56274540257415
  H   -0.34287020753051     -2.44619489013106      2.24013196426777
  N   -2.75981780810423     -1.59112056846704      1.83957589226983
  H   -2.06106303902052     -0.11105132168546      3.19995103766451
  O   -5.30018057033721     -4.95078224372238     -1.21487866683617
  C   -3.75693393209867      1.03837956376020     -5.93015598984872
  C   -2.27829950790704      0.78170606009183     -6.29436485007356
  N   -4.15486141651584      0.09663643571058     -4.91710871304985
  H   -4.35942339360532      0.88120478602324     -6.82385270715100
  N   -1.45040899676704      1.21105010554068     -5.19873764108120
  H   -2.04338265707672      1.37562017239935     -7.17697018955053
  C   0.35348314835967      5.98800048975861     -1.46450697664461
  C   1.50430376020834      5.78212602903178     -2.46859274357110
  N   -0.21024393186528      4.66150429494567     -1.21855345738270
  H   -0.41568153264579      6.66858574743711     -1.82066136622561
  N   1.72745029876443      4.32902787177473     -2.45245502765541
  H   2.38980383395598      6.35163013919863     -2.17355207953065
  H   -0.42404588173174     -1.82943043127966      0.05796870719774
  H   1.48120420845754      3.80462690991283     -0.39247897312609
  H   2.70618266987024      4.09672485727773     -2.35689513087580
  H   -5.60115491254399     -4.21123691849331     -3.07017716056422
  H   0.14626575095317     -1.25261931661887      3.46100858601521
  H   -2.16335937720047     -1.77572947753228      3.81392902355965
  H   -3.85852211752632      2.08359892352412     -5.61628331783783
  H   -2.16034992748150     -0.27946944545751     -6.54381288680873
  H   0.73610054598067      6.38426739769320     -0.52339488765826
  H   1.22626140557735      6.10780230879866     -3.47325997914154
  H   -0.85721666801303      4.42943891392417     -1.96450648346734
