111
Coordinates from ORCA-job _o_2_alde1_3_ami1_2_opt_B97-3c
  C   -3.39214846574060      1.31696044551738      0.51949492322231
  C   -2.98377463383543      0.43520892388325      1.61080658842987
  C   -2.92770462860250      2.62320392118156      0.49829896280790
  C   -3.15604104674167      3.43933018379459     -0.61297794444909
  H   -2.34639953770403      3.01878853450683      1.32104745472503
  C   -3.83619765530283      2.93802077174181     -1.71176418608530
  C   -4.29716308995697      1.61855361635989     -1.71398229550655
  H   -3.97105830940497      3.53905712546573     -2.60151511489831
  C   -4.08796897413891      0.82877131982902     -0.59186306058311
  C   -4.80695506640341      0.98988223043894     -2.92959193124121
  H   -4.39970929689256     -0.20765515591625     -0.58849401531640
  C   -2.59620780081690      4.79622023879337     -0.66876406261263
  H   -5.06256359747335     -0.07366888542358     -2.82987652612410
  H   -2.28803048931840      0.88825036306787      2.32986429260708
  C   -0.67860449196206     -0.54784451314159     -1.15749878125523
  C   -1.15800995216354     -1.56002264827709     -0.22329666196613
  C   -1.32215122440813     -0.43650245335076     -2.38104058322218
  C   -1.05180420907274      0.63312660044966     -3.23873933956078
  H   -2.09276030560965     -1.14239881569182     -2.66073116854606
  C   -0.10245070409917      1.57277985255873     -2.86482542367281
  C   0.57790745191427      1.46161508717039     -1.64698035049121
  H   0.11111516290380      2.42321805834329     -3.49849913407196
  C   0.28157116310647      0.40398111344601     -0.79944535532714
  C   1.56712298999325      2.45804892079870     -1.23776241272982
  H   0.76226474059291      0.32253288538643      0.16671785559131
  C   -1.85594337813291      0.86081807384986     -4.43671633476611
  H   -1.68365029869935      1.82478499008016     -4.93545728209992
  C   -1.60639786763180     -2.49827991355011      1.83986755744152
  C   -2.58938869975992     -1.60183568795509      2.64606969850644
  N   -0.82313202512933     -1.61640658410397      1.00015236887865
  H   -2.21869534423812     -3.16325972302768      1.21820944384689
  C   -0.70229366829183     -3.37819931596780      2.71183600609606
  N   -3.30058360189879     -0.79182149526438      1.67981748553737
  H   -1.97998034395429     -0.96436711770684      3.29824708865688
  C   -3.56182538981245     -2.38884588778387      3.53646629710650
  H   -1.36252575171774     -4.06027620483044      3.25253054086568
  C   0.19820297144983     -4.22473339726420      1.82006318516965
  C   -4.46122386932785     -1.42326461056896      4.29828797363812
  C   -4.39070870810828     -3.41936401605886      2.78310817520098
  O   -1.89498015502055      5.29321394441361      0.19164210199123
  C   -5.04894385764319      0.74069160973940     -5.21794804483128
  C   -3.65277701772208      0.52647146120241     -5.87360119217652
  N   -4.83299047544468      1.57449411473668     -4.05551926855097
  H   -5.41330871459405     -0.24783103321320     -4.91207482850972
  C   -6.09344500918761      1.35800917772987     -6.15653369228685
  N   -2.76275498454845      0.06485605289340     -4.83114248649561
  H   -3.32181072597600      1.50126695023850     -6.25226197131052
  C   -3.66751688099492     -0.45432533317869     -7.05634960325651
  H   -6.22273682361318      0.65487783011332     -6.98262776908150
  C   -7.43146073514865      1.46494217208349     -5.43549570695603
  H   -4.33848232030901     -0.02659332718279     -7.80485135236700
  C   -2.27946475030157     -0.53213102321832     -7.67994972336788
  C   2.34115120329567      5.84454166033880     -1.31074585251881
  C   2.87452249447026      4.37847286287399     -1.46704840795589
  N   0.96805423378240      6.07873562480300     -1.74184818650573
  H   2.96618912216573      6.47115216213418     -1.95098646881134
  C   2.53412244384973      6.38785603180579      0.11260845117669
  N   1.83287901062155      3.48939047311467     -1.92602198893309
  H   3.25402789932922      4.03456801628457     -0.49604304318725
  C   4.06598334906608      4.31161259683957     -2.44561852733532
  H   2.11812446950842      7.39869615178323      0.08198621435243
  C   1.77183538809248      5.61232620526478      1.18063573229574
  H   4.76358162296521      5.07952968810395     -2.09856780130902
  C   4.77709126537472      2.96946700726352     -2.36706568160684
  H   -1.92917125744636     -2.22721003011315     -0.63252107745743
  H   0.80520579145055      5.56417631092689     -2.59781247476481
  H   2.07581311482916      2.25352209803973     -0.28438473886087
  H   -2.84110277183626      5.36228458989366     -1.59005962812738
  C   0.12010994270395     -2.59901582251120      3.72825017500858
  H   -2.94669681891194     -2.91273105142894      4.27168658148751
  C   -5.67988346649082      2.70507860162683     -6.73240052140400
  C   -4.17441119896957     -1.84282937211418     -6.69215793487775
  C   4.00765849077061      6.50477051695736      0.47790726650545
  C   3.67453310356848      4.63920046719294     -3.87966733416516
  H   0.32133881667516      5.68387771841462     -1.07047858210101
  H   -3.77836022685617     -4.21196982001295      2.35704941369167
  H   -4.94549720184866     -2.95129368386352      1.97230277239844
  H   -5.10910201825120     -3.89115007789193      3.45291282507822
  H   -0.37785587035970     -4.77122033588580      1.07242401488258
  H   0.75433050604223     -4.95204388568786      2.41030648812391
  H   0.91683541564182     -3.60079808267657      1.29079188266162
  H   0.80010295213740     -3.26653282090453      4.25671972368981
  H   -0.49988327879274     -2.11127545620321      4.47853317345601
  H   0.71577641907241     -1.83291535424283      3.23590815340714
  H   -5.14090969382616     -0.90968492440237      3.62006955779516
  H   -3.88049353290550     -0.66467854019219      4.82400836760014
  H   -5.06222015308927     -1.95362539828279      5.03612079402260
  H   2.14239529047806      4.59152838703443      1.28004966487137
  H   0.70318125468711      5.56235911334571      0.98427227736362
  H   1.89426448335353      6.09199612343937      2.15160366149006
  H   4.13277336615882      2.16041605877781     -2.70935128310515
  H   5.08472782622139      2.74007564971594     -1.34632679236270
  H   5.67005206148555      2.96399465722294     -2.99177735112632
  H   4.12713759228106      6.99575047489705      1.44322129395927
  H   4.55724130151772      7.08744261159204     -0.26136938607331
  H   4.48883046516763      5.52884027012254      0.55334092834309
  H   3.17410755743096      5.60328785757884     -3.95855452145739
  H   3.00176301758331      3.88386017803294     -4.28029826954762
  H   4.55788706604001      4.67559289044162     -4.51656268194637
  H   -7.74019216991845      0.50466262381885     -5.02137038160500
  H   -8.21216325341440      1.80095736158159     -6.11663491156179
  H   -7.37507263450926      2.17772925854403     -4.61411958808795
  H   -1.56954586595499     -0.99118113776922     -6.99376620690605
  H   -1.89943396031781      0.45654853253888     -7.93915538814537
  H   -2.29907724867802     -1.12981281086245     -8.59031974936239
  H   -5.21924697058917     -1.83652314976699     -6.38681475226873
  H   -3.58932738082440     -2.26343535212694     -5.87677970594411
  H   -4.09265219060186     -2.51350418774014     -7.54693439140482
  H   -5.44119963693941      3.40748893145022     -5.93630059839508
  H   -6.49096980713690      3.12908692094651     -7.32332206094140
  H   -4.81148814471926      2.62946837806755     -7.38448503447214
