99
Coordinates from ORCA-job _o_3_alde1_6_ami4_2_opt_B97-3c
  C   -3.00983048339704     -0.89130786797540      0.34556473172153
  C   -3.20781119879527     -0.52753099885452      1.74653644896937
  C   -2.29360102223781     -2.03179128546924     -0.04114690927614
  C   -2.13098634207423     -2.34342296310662     -1.38439427525971
  H   -1.87763802164016     -2.67424826002233      0.72393312863151
  C   -2.67313094258314     -1.49247329799452     -2.35248284890674
  C   -3.40067390743995     -0.37048937438960     -1.98893871429381
  H   -2.52477378425231     -1.74120710041897     -3.39472032902966
  C   -3.56791834126427     -0.07803045290188     -0.63247688583779
  C   -3.94155798844254      0.49753442237569     -3.03337064607212
  H   -4.13337928710466      0.80268747578163     -0.35859057710782
  C   -1.42007343593265     -3.55982875922388     -1.78326321712132
  H   -3.54779705165673      0.31561515048759     -4.04303955665862
  H   -3.82259690538428      0.36877182068862      1.90724614335200
  H   -0.98935604905935     -4.15484680072082     -0.96654404554307
  C   3.41948386307553     -1.63625473229445     -0.16889384296388
  C   3.32642330027498     -1.92947913658726      1.26261062462609
  C   4.05259204314072     -0.47103888291198     -0.60405526370156
  C   4.04927486352366     -0.11072809249524     -1.95021799580867
  H   4.53501887114273      0.17727603807445      0.11927186723111
  C   3.38915443369090     -0.92826947716006     -2.86845293331814
  C   2.76755130375054     -2.10036985090795     -2.45049831044380
  H   3.36097143027540     -0.62351455832104     -3.90656165739603
  C   2.79359359085231     -2.45119015342944     -1.10279012308946
  C   2.01573706769620     -2.92061913300402     -3.40180497844983
  H   2.28620010196546     -3.34564047994707     -0.77557252751170
  C   4.68391462034934      1.14237746472019     -2.35168619537728
  H   1.83485487029067     -2.47188809364881     -4.38877040547429
  H   3.78573828096844     -1.19757981165175      1.93857707603289
  H   5.10501213331278      1.73499481562571     -1.52646396507961
  C   0.24475474275065      3.22699656709147     -0.10939092088486
  C   0.60526468482801      2.89714787837671      1.26957697408232
  C   -1.09002266596170      3.33504236135723     -0.50613455625444
  C   -1.42183807210400      3.57064036893959     -1.83256565451987
  H   -1.86104295200886      3.21001139214578      0.24229147685198
  C   -0.40206107087804      3.68223812308952     -2.78391462210564
  C   0.92954954867772      3.61008288580888     -2.40032560545485
  H   -0.67188715686363      3.83384310696199     -3.82096435363087
  C   1.24522161718859      3.39173400663111     -1.05510535396856
  C   1.98567565224272      3.70351699655864     -3.40749992609897
  H   2.28796931345558      3.31918919399240     -0.77532056060486
  C   -2.83391581863057      3.66170171417724     -2.18995484863695
  H   1.66012235042126      3.57704762330065     -4.45019083665689
  H   1.67774283726267      2.96523301430150      1.48469636418851
  H   -3.52522109198304      3.62244679331202     -1.33788515442863
  C   -3.62359302825120     -1.86932627406518      4.89489362477139
  C   -3.03924827110971     -0.72251078746922      4.06557205205305
  N   -2.76557732977700     -3.02598759633299      5.08831061735588
  N   -2.72539928725172     -1.17330998725544      2.72942231378618
  C   0.97967025564355     -3.05448208305000      3.39626673699486
  C   2.48044042543368     -3.05342199471104      3.12474661745471
  N   0.38161313546823     -1.81990416139613      2.89894711176712
  N   2.68307729977404     -2.93418794568353      1.70118513720215
  C   1.61877730923393      1.89918390225779      3.77107957730784
  C   0.14587609997461      2.18683334988066      3.47782110755622
  N   2.19953200488680      0.75669729125853      3.07806513859284
  N   -0.25770112097615      2.54613491330388      2.13162930644151
  C   -0.58871157432499     -5.11811990449977     -3.30459347034843
  C   0.72144406109524     -4.77040063401096     -4.01151416762547
  N   -1.32250308636916     -3.91609141274360     -2.99837086754484
  N   1.56847648887779     -4.06509469039265     -3.08918390601860
  C   -5.13722231481010      2.29025670789988     -3.89852611893607
  C   -4.69662177237994      3.71734445074772     -3.55150832284486
  N   -4.78901030377820      1.41486623055482     -2.80805191091056
  N   -3.26216661351206      3.75895668402330     -3.38292840422899
  C   5.29654888278572      2.86486956822909     -3.77330231992245
  C   4.18501596444188      3.84108111717483     -4.16213503169729
  N   4.73967055902464      1.55178760904769     -3.55289797765922
  N   3.20440023291335      3.88796659869049     -3.10734250318174
  H   2.19751898908609      0.92476860761501      2.07996871742715
  H   1.59737298244918     -0.05787702942982      3.20646491659961
  H   -1.93051300722666     -2.76054058334220      5.59635493088885
  H   -2.45648129516009     -3.36614266461349      4.18669673804892
  H   -0.62606989980027     -1.82304216373317      3.02447687300827
  H   0.51826210721881     -1.78226651117955      1.89504647746789
  H   3.75658284138803      3.55315882380712     -5.13062055236685
  H   4.63456299026657      4.83112402873416     -4.27074056884774
  H   5.81301966056863      3.25677952270055     -2.88723402733475
  H   6.01211528265526      2.81577533236233     -4.59565702027025
  H   2.89350590821287     -4.00650710563679      3.46230920935530
  H   2.96075174422236     -2.24514530280291      3.69033048263716
  H   0.82318061971016     -3.11414482907420      4.47447177128771
  H   0.54932031589006     -3.96095254532743      2.95152922307382
  H   0.51078643530526     -4.20738406990601     -4.93003135374255
  H   1.20856248348281     -5.70811441570565     -4.28821149602690
  H   -0.35646133837599     -5.71482937249166     -2.41381954879005
  H   -1.19312239042665     -5.72493852985795     -3.98084251996441
  H   -4.54670848971991     -2.20400707253955      4.41902145878073
  H   -3.90533573992082     -1.47649938910852      5.87326806006466
  H   -2.11026216193198     -0.39254446767733      4.54083291083801
  H   -3.73083548920844      0.13243109271806      4.06685814426836
  H   1.69898362777747      1.71996881615318      4.84550860918214
  H   2.23215522054749      2.78254725238307      3.58083828803077
  H   -0.21321917217530      2.98259526047166      4.14034390269347
  H   -0.43995892809384      1.30326685409000      3.74348250876880
  H   -5.23346576477715      4.03253735127024     -2.64893874335161
  H   -4.98307589646816      4.37609617478032     -4.37134190213304
  H   -4.68542277427766      1.98712477354907     -4.85167639851001
  H   -6.22213880780799      2.29542137744374     -4.01803223114865
