99
Coordinates from ORCA-job _o_3_alde1_6_ami4_1_opt_B97-3c
  C   -2.41261059995462     -2.01192548232097     -0.82156811941689
  C   -2.74077406285928     -2.08992428151450     -2.29058758327081
  C   -1.51045940011829     -2.92677925276797     -0.27609647301655
  C   -1.17370938234523     -2.88863301008747      1.07445134915818
  H   -1.06671669269697     -3.68064673156480     -0.91647994306884
  C   -1.74702952788656     -1.90752022370857      1.88675561646140
  C   -2.66241227408832     -1.00806632412119      1.36217120494709
  H   -1.47751509268824     -1.87927732050891      2.93429558809442
  C   -2.99181539489026     -1.06697099163268      0.00173798469771
  C   -3.24882629149727      0.01358343306936      2.22687461700337
  H   -3.69789616084836     -0.36269568388183     -0.40982910290558
  C   -0.24851654796620     -3.88213604440864      1.61568900635069
  H   -2.72762023827577      0.18515650286736      3.17956543952046
  H   0.18043875725758     -4.57556546286864      0.87731473371252
  C   3.68686441373394     -1.40297921338778     -1.04009795231210
  C   3.41493564920038     -1.95627990256665     -2.41161334184086
  C   4.12976669976896     -0.09615021738714     -0.87702241080418
  C   4.29248051598216      0.45518205765925      0.39338418850953
  H   4.34297930749867      0.51098000818637     -1.74947751542942
  C   3.95803777831265     -0.31088825530811      1.51010487376699
  C   3.51595064685129     -1.61962946202568      1.35898430996260
  H   4.05239826435726      0.13244643838641      2.49282532134875
  C   3.40486396277896     -2.16567121773595      0.07790593636144
  C   3.10700759079759     -2.39747746218047      2.52739315854781
  H   3.09039206420415     -3.19360984017694     -0.02928356559714
  C   4.77682031415417      1.82656501944867      0.50823258106996
  H   2.97920300890981     -1.82673336021990      3.45841249215062
  H   4.94971995395037      2.33755179241775     -0.44865158250777
  C   0.18668978282315      2.68088316946722     -1.81804060766123
  C   0.44749182287976      2.26585564375311     -3.24090027745841
  C   -1.11813807604206      2.61461707047357     -1.33044986844358
  C   -1.41877012324086      2.99361489674636     -0.02622104572210
  H   -1.91052541199985      2.25581889324979     -1.97705064632644
  C   -0.38557525316983      3.42706229944674      0.80638972704634
  C   0.91310359651164      3.51637586263631      0.32895095833604
  H   -0.62342533709118      3.70833226904831      1.82390469623501
  C   1.19405064144059      3.14157338877852     -0.99174261789839
  C   1.97138620962399      3.97323085193169      1.22689790594406
  H   2.20537509232979      3.20685174109054     -1.36257801880958
  C   -2.80109929407801      2.93449206827864      0.43944358361572
  H   1.72678192447126      3.92850813614806      2.29814090706620
  H   -3.52546174079447      2.55161215884953     -0.29172410117699
  C   -3.34137364745103     -0.61550493985659     -4.05399198058031
  C   -2.12980007795158     -1.47664394554505     -4.41279460334591
  N   -3.76428858580671     -1.11816878642272     -2.73637995024012
  H   -3.04229203028763      0.43243183969883     -3.97778901422283
  N   -1.56515334757337     -1.84966565979949     -3.11757005351480
  H   -2.43712578832846     -2.38055706500856     -4.94373975352305
  C   1.70188949134336     -2.93677627239553     -3.63799346794429
  C   2.58417153600615     -4.07077918185122     -3.12305019931131
  N   1.98700175984520     -1.83195592407972     -2.72157859337217
  H   0.63466643533150     -3.14223982347307     -3.64413512689585
  N   3.75277352675069     -3.39115327436922     -2.55099691338679
  H   2.88100223801252     -4.77901684142393     -3.89640190183215
  C   0.97420540078586      0.64127066770911     -4.74972911048524
  C   2.14320545432557      1.63513715639928     -4.77070979101044
  N   0.34071801380443      0.82755017564163     -3.44461167494650
  H   1.28135368871528     -0.39142533900030     -4.86818479443926
  N   1.79061533165121      2.61802719808395     -3.73246751428360
  H   2.27242181698920      2.09263174209933     -5.75415309963664
  C   1.00640146343976     -4.96451907918581      3.24419169854386
  C   2.33156664620015     -4.30268780658792      3.62545971994778
  N   0.04405330517876     -3.96528126689644      2.84951871017638
  H   0.62292413557328     -5.49270294466602      4.11872637071551
  N   2.87151138107240     -3.64287341157845      2.46705433435807
  H   3.01906373091469     -5.09237368371124      3.93693059612148
  C   -4.67877598452849      1.77251590814405      2.74903371801201
  C   -4.54252888180312      3.08011748002391      1.95949153370367
  N   -4.27757591814292      0.68221516174462      1.90111341368841
  H   -5.73053942027800      1.65235832970235      3.01549836004391
  N   -3.16007106599083      3.29287813082651      1.60578674885351
  H   -4.88040177434321      3.90161439959548      2.59176735358759
  C   5.34291332799107      3.81190161279841      1.54389768211770
  C   4.10848916868391      4.67974861237693      1.80851948923247
  N   4.97984293506952      2.41652354867840      1.61589968786400
  H   6.09080482159031      4.03000043106292      2.30714486782001
  N   3.10362667059450      4.37870294125891      0.82164454594246
  H   4.40885023212748      5.72469339758658      1.70522992887405
  H   1.46138075570798     -1.98221791082453     -1.86666832704236
  H   3.97470924446731     -1.36844107503027     -3.14793378506272
  H   4.56051522468349     -3.50041777267997     -3.14514137415619
  H   1.81278630763993      3.56318437863282     -4.08868819400385
  H   0.93282086629204      0.35430566527821     -2.76487643233835
  H   -0.33242805879806      2.72608478493159     -3.86686894036456
  H   -1.07615280587679     -1.02997223165996     -2.76428879293870
  H   -4.66927143705926     -1.56221591722895     -2.79283679168872
  H   -3.08258959699774     -3.11271710649330     -2.50453791905071
  H   2.00550805228207     -2.64895401638295     -4.64775842051788
  H   -4.14793001428505     -0.67949750552595     -4.78538733789060
  H   3.08061239356835      1.13627291180105     -4.51338476410711
  H   2.17890742055855     -3.62555117782617      4.47553432317103
  H   -5.19845000982902      3.02132179271358      1.08261698226472
  H   3.75824330565783      4.52352705725649      2.83674152702698
  H   -1.38713783180955     -0.95901959607395     -5.01169061167481
  H   0.25226117959740      0.88511455995913     -5.53123842543005
  H   1.20001921881730     -5.70026637668948      2.45305741281574
  H   -4.09190891187172      1.83904568029272      3.67413488506392
  H   5.75548893157440      4.08721166787046      0.56529783095015
  H   2.05936621343041     -4.63475237354919     -2.34662359878859
