207
Coordinates from ORCA-job _o_3_alde1_6_ami1_2_opt_B97-3c
  C   -1.22186270317041     -0.14932980484494     -3.17973865223278
  C   -0.01043941664305     -0.00117929485870     -3.99170456530821
  C   -1.64139982258995     -1.41723699577053     -2.79549740627250
  C   -2.79510049905107     -1.58891674990653     -2.03780170057755
  H   -1.06034025023150     -2.27796104138911     -3.08738532334666
  C   -3.54298517478800     -0.47745750922038     -1.67056938087191
  C   -3.15790537213973      0.80229761289878     -2.06973244339956
  H   -4.44604646787345     -0.58301340702147     -1.08442077954938
  C   -1.98225161830320      0.96067983010445     -2.80335468986882
  C   -3.97394656551877      1.96487536707825     -1.72403071386096
  H   -1.65862378134924      1.95767645144680     -3.08214855347949
  C   -3.20322817448667     -2.93140589568743     -1.62364759021925
  H   -3.54455201306659      2.94203556486221     -1.98392625557288
  H   0.26687469329403      1.02165548335533     -4.27718677073701
  H   -3.88590172699770     -2.98823103482533     -0.76385393270193
  C   2.42236974934004     -2.21290229343910      0.91067129875902
  C   3.70003554556127     -1.58005041684057      0.57720064969297
  C   1.87270482884156     -2.02574569373798      2.17212497418570
  C   0.65894239989464     -2.60935483628962      2.51749393849017
  H   2.39111142857213     -1.41151455544334      2.89121469310049
  C   -0.01085699324161     -3.39403060766053      1.58758596126078
  C   0.53675058877448     -3.62082120855360      0.32451343097438
  H   -0.95782086225350     -3.85730892194728      1.83028737185838
  C   1.74555891439034     -3.01276656079649     -0.01253287358921
  C   -0.14096428367964     -4.49093809268580     -0.63510542123334
  H   2.16204179912405     -3.16577917038722     -1.00187299495577
  C   0.09479078362436     -2.36725204961910      3.84533304634073
  H   0.29273585944687     -4.51871709972999     -1.64387999675266
  H   4.09949837482896     -1.78698629499182     -0.42516042026341
  H   -0.98347131921446     -2.54657104399383      3.95919540243750
  C   0.01221711845134      3.00798729024733      0.99276897768171
  C   0.82238228676729      3.70883674277971     -0.00403019904618
  C   -1.37248671869782      3.02256440373099      0.88529995639562
  C   -2.17034236861261      2.38656018079716      1.83057043455418
  H   -1.83801180100686      3.53621979665268      0.05982638561620
  C   -1.57350010531734      1.72394248655448      2.89403987860090
  C   -0.18590936465384      1.72565016881962      3.04343862823045
  H   -2.17097684234304      1.21923543797372      3.64130231731026
  C   0.60038045014723      2.36163232443564      2.08345393596110
  C   0.43348294366941      1.08033339917300      4.20099106443147
  H   1.67967593452542      2.35275060271180      2.18539107104098
  C   -3.62564047193535      2.42118164367244      1.68489186057492
  H   1.53179546568914      1.05161080358632      4.20239212686668
  H   1.88903858866867      3.82840967930797      0.23185556235048
  H   -4.19079639923219      1.63050706101527      2.19888495011528
  C   1.43744739429783     -1.43049177973421     -6.60206834380806
  C   1.81198647601363     -0.84853206490629     -5.22398422897524
  N   0.35219947581053     -0.61154315858113     -7.14891362315669
  H   1.10968952319614     -2.46200200198094     -6.42348127851855
  C   2.60786006007231     -1.50908085053882     -7.59226765021683
  N   0.65902593564101     -1.01303402683345     -4.36880263278073
  H   2.04044868486575      0.21510580053051     -5.37505035987250
  C   3.03531008702809     -1.51288106076618     -4.56340329311487
  H   3.34879967001470     -2.16850405885264     -7.13645748248080
  C   3.26753680524137     -0.16678087323599     -7.87551989486355
  C   2.17483226024730     -2.18481296554406     -8.89051596714307
  H   3.87037134707141     -1.38678749166305     -5.25481042197749
  C   2.84884620802562     -3.00088175493480     -4.30133825524850
  C   3.40636686909433     -0.78230373970177     -3.28132390991895
  H   1.53975839676782     -1.53643471922727     -9.49453789040398
  H   1.62995952689589     -3.10944358414080     -8.69689922349076
  H   3.04051583203695     -2.43504462223531     -9.50244679630710
  H   4.06082999600708     -0.27698726949389     -8.61494163808946
  H   3.71606300586677      0.26966347352775     -6.98439192884184
  H   2.53895145209884      0.54337347847756     -8.26027670528726
  H   2.61731772670616     -0.86290025243917     -2.53568458182873
  H   3.58315386629056      0.27671405020304     -3.46125754740887
  H   4.31654129330528     -1.19968059550231     -2.85151758302454
  H   1.98286449475923     -3.16844093985543     -3.66514385235296
  H   3.72575655129971     -3.41340320545689     -3.80200922300635
  H   2.69927026772539     -3.56958182297703     -5.21708650227137
  C   6.66632268121588     -0.65736512445362      2.09295963430631
  C   5.56154640856064     -0.22378008277488      1.07331373521179
  N   6.18091644157481     -1.09697970399786      3.39864530103609
  H   7.27989939511881      0.22680123318193      2.28032865563045
  C   7.62299182892549     -1.71903718433255      1.52908223843768
  N   4.30746827346967     -0.84354310686213      1.41204780875373
  H   5.88058180191619     -0.51604373454742      0.06292135193846
  C   5.38202139919061      1.30921003873032      1.03553447645089
  H   8.24454155890190     -2.00220476449499      2.38199558402122
  C   8.54276717941898     -1.14769044165910      0.46002675027078
  C   6.92195977999418     -2.97654267172047      1.03175360490380
  H   6.37332658865223      1.70890299939626      0.79946781147940
  C   4.93604402527844      1.89943693663242      2.36696951584257
  C   4.43823367612982      1.71744600489250     -0.08426627828408
  H   6.23129906886284     -3.38898211811868      1.76607903832234
  H   7.65141556618327     -3.75299734394638      0.80403093081807
  H   6.35778531940756     -2.78843782787234      0.11881121716813
  H   7.99287557949457     -0.81394757597129     -0.42080682686388
  H   9.26088702387811     -1.89699261675865      0.12848542284793
  H   9.10714998775575     -0.29669491181888      0.84084363338569
  H   3.42398778827343      1.36945120116332      0.10555803667544
  H   4.75320645491744      1.30316873166825     -1.04158875932571
  H   4.40441020841424      2.80161380347137     -0.18832616255117
  H   4.76983043985742      2.97292757175841      2.27617874148166
  H   5.67928630359528      1.76252893300932      3.15125224096267
  H   4.00651164655204      1.43914024583095      2.69712922521811
  C   0.37224844776997      6.31735432128224     -2.22428342248673
  C   1.10672114781606      4.97637830167594     -1.96675005203187
  N   -0.91962980888949      6.16647104386283     -2.88424339614383
  H   1.01826132174148      6.87376243474250     -2.90450663708837
  C   0.21511943027999      7.24097133348547     -0.99747419466050
  N   0.30844175028055      4.19143984824411     -1.06016788552868
  H   2.09818356066651      5.19736069095737     -1.54344059745763
  C   1.34808377434569      4.17131180092906     -3.26171340918403
  H   -0.06190692498877      8.20275893935973     -1.43869524629751
  C   1.52882133809639      7.43535854747383     -0.25447869229223
  C   -0.91214535560791      6.87919052785722     -0.03807752007801
  H   0.36889093790460      3.84955574594474     -3.62662097819268
  C   2.17108976485589      2.92631600031797     -2.96827954218348
  C   2.02357547131165      4.99668341587223     -4.35006134086256
  H   -1.03613376804946      7.67615836566251      0.69563300627738
  H   -0.72290543305573      5.95900907602876      0.50625365177768
  H   -1.86102151592061      6.77510706196931     -0.55924930073265
  H   1.45010397293373      8.25566783708400      0.45807553762465
  H   2.34834090838142      7.66980095140054     -0.93536984214754
  H   1.80740805837663      6.54520006211246      0.30899560917026
  H   2.96023721931620      5.42790389182679     -3.99355043050890
  H   1.40260830009421      5.81340412953987     -4.71193579859729
  H   2.25893155008257      4.36854351212462     -5.20844832773890
  H   3.14663799140434      3.19298905527076     -2.56013922553577
  H   2.34489178874336      2.35619858616379     -3.87905190456130
  H   1.68202382341541      2.26847358128558     -2.25488519247315
  C   -3.13442142887265     -5.26811201771667     -1.70374200332546
  C   -1.80490136173323     -5.97142557957452     -1.34711194012122
  N   -2.77658069711833     -3.96719750399871     -2.21562676773204
  H   -3.72067402545542     -5.17791028501577     -0.78005560297209
  C   -3.99687876492195     -6.02383203890106     -2.73070156221689
  N   -1.16443549312989     -5.17419692688971     -0.32541112237208
  H   -1.19891920971273     -5.98771161619849     -2.26202820966854
  C   -1.96188763958323     -7.41960417191874     -0.85822996823197
  H   -4.22234672104336     -6.99658322060706     -2.28853927488831
  C   -3.29475721704701     -6.24847107622530     -4.06234760528678
  C   -5.32408327547593     -5.30302712818050     -2.92891581216212
  H   -2.43110974484888     -7.97425603012389     -1.67390191260699
  C   -2.83916782352763     -7.54575119904973      0.37885077097595
  C   -0.59063639115685     -8.03913374652505     -0.62321374219777
  H   -5.18019267432867     -4.33466323376001     -3.40523602548377
  H   -5.83003593086442     -5.13420694250040     -1.97778541349951
  H   -5.99003598450499     -5.88903197363243     -3.56108956889659
  H   -2.39588108150620     -6.85434274821050     -3.95986915602518
  H   -3.00488839880356     -5.29871765096727     -4.50639881504694
  H   -3.95612143235036     -6.76150654694566     -4.76030034931613
  H   -0.07547094013482     -7.55156780020510      0.20269852718986
  H   0.04046847361719     -7.94829499852767     -1.50784003762685
  H   -0.68020077965552     -9.09796057179984     -0.38390703488354
  H   -2.89416984413378     -8.58393842867957      0.70442796510342
  H   -3.85829004419898     -7.20697157521243      0.19944101121656
  H   -2.43237008313262     -6.95581412147272      1.19709890053692
  C   -5.79899530993471      3.06851318318181     -0.77222295181786
  C   -5.61264856921824      3.23850868823102      0.75588520132137
  N   -5.10314517535049      1.85950459305265     -1.15348936816261
  H   -5.33586043398514      3.94321440434328     -1.24543716068928
  C   -7.26480941879815      3.00424422865326     -1.22584906821565
  N   -4.19059922627490      3.30793077182301      0.97869468367129
  H   -6.04438949457846      2.35635001173149      1.24590279168426
  C   -6.29965121275955      4.48527061529779      1.34184999245641
  H   -7.72482181083444      3.94944098268802     -0.92843575029437
  C   -8.04492532689760      1.86525875732966     -0.58470289713486
  C   -7.33384385118735      2.92711191614186     -2.74526047203324
  H   -7.36515963520503      4.38698110036470      1.12290507647382
  C   -5.79800841566247      5.79030823196765      0.73920064519048
  C   -6.15019604665492      4.49463153914651      2.85800683328809
  H   -6.90932344116421      1.99274793464860     -3.10888531475468
  H   -6.78183824037606      3.74558973804990     -3.20823472325371
  H   -8.36581105099166      2.98339257569084     -3.08952278014198
  H   -7.57516636204049      0.90936541493224     -0.80608314318857
  H   -9.06500764636930      1.83740325401007     -0.96652813884932
  H   -8.10685235947800      1.96339487985709      0.49797545547465
  H   -6.72240454526606      5.31083275156554      3.29734848987561
  H   -5.10915601504605      4.62455761178248      3.14903439066330
  H   -6.50583387201133      3.56262630957535      3.29867697591207
  H   -4.72543109826230      5.89352185871601      0.88812608637025
  H   -6.28825376168238      6.64111200715231      1.21171789078181
  H   -5.99111697021734      5.85616170301256     -0.33027733078241
  C   0.19895660674277     -1.59958941845657      6.05447062831278
  C   0.42485227175731     -0.07911014906045      6.23583228555829
  N   0.81548858093336     -1.94552531282496      4.79826954757240
  H   -0.88484897606711     -1.77151467266267      6.02189382587168
  C   0.77960731591838     -2.46809537614351      7.18433976548506
  N   -0.25382153102204      0.58591748541289      5.14661637417423
  H   1.50770355068722      0.08936542099242      6.17851271581151
  C   -0.07066723966557      0.47947632092901      7.57894468620645
  H   0.28077656302191     -2.15661684017325      8.10455644136333
  C   2.28122036995799     -2.29871836360960      7.36684280352441
  C   0.42044082639303     -3.93016745196561      6.95165335071859
  H   0.48911830294103     -0.04181906624436      8.35845344922667
  C   -1.55602276630532      0.24879795465221      7.81690176814652
  C   0.27933252684300      1.95777706477569      7.68594834860828
  H   0.72355639641768     -4.54170186472361      7.80054224579126
  H   0.91729425789964     -4.32201914674133      6.06575792607205
  H   -0.65380275505867     -4.05807481350522      6.81458338525945
  H   2.64584659960898     -2.95505892318105      8.15658889284625
  H   2.55336202841409     -1.28024698181344      7.63895226954182
  H   2.80954134137303     -2.54885311184837      6.44957445370856
  H   -0.26713751653463      2.54453513516581      6.94947041899758
  H   1.34417607575837      2.12436637351551      7.51999370528338
  H   0.03117271518118      2.34378930264289      8.67385749090291
  H   -1.81021241185081     -0.80943829042326      7.85118980860620
  H   -2.14555363767717      0.70657094952532      7.02575935746434
  H   -1.86359299453684      0.68763032570090      8.76551905733394
  H   -1.44239624595158      5.44422361404486     -2.40319893558387
  H   -0.78969431635124      5.83688591823674     -3.83122854896578
  H   0.03339547434923     -1.00980536020599     -8.02254151304731
  H   -0.44054974807658     -0.66898460832335     -6.52268882152835
  H   5.54248293172729     -1.87222449392404      3.26472148311764
  H   5.59945980844603     -0.37065722559309      3.79646003324134
