102
Coordinates from ORCA-job _o_3_alde1_4_ami2_1_opt_B97-3c
  C   -3.10728180405760     -2.23641399127930     -0.43308275664738
  C   -2.64210500832418     -2.18642164403089      0.95617251009913
  C   -2.62697438991968     -3.21926628955572     -1.28358492164863
  C   -3.00204665761378     -3.25079079745618     -2.63209124567241
  H   -1.94949337294557     -3.98017976003024     -0.92073610120229
  C   -3.82020962106109     -2.24819962743896     -3.13328081550190
  C   -4.28559111452527     -1.22906469232924     -2.29563312115596
  H   -4.08213989096999     -2.21755148771969     -4.18282920014028
  C   -3.95953892611571     -1.25487730070800     -0.94696665362343
  C   -5.01661648578592     -0.07286058899207     -2.80767361334749
  H   -4.31736760468248     -0.48176523857154     -0.28122824873799
  C   -2.47607792870371     -4.28776026813788     -3.52023253064891
  H   -5.46694011782013      0.56797380996888     -2.03821752961668
  H   -1.77606750354559     -2.82088531564999      1.17047681481409
  H   -2.90119146734238     -4.32131572513836     -4.53304989861733
  C   2.34997137106777     -2.72559368314638      0.32147091016136
  C   2.29109670763580     -2.81791378201602      1.78717978735530
  C   2.93763099816429     -1.61573460555099     -0.26757429621936
  C   2.97289306409324     -1.49226561777798     -1.65982347643858
  H   3.36074152745519     -0.82490218849224      0.33856510700391
  C   2.41462837456710     -2.49630980419144     -2.43751731146579
  C   1.82349483744668     -3.62453070516717     -1.85811740789817
  H   2.40632640099192     -2.41522121909338     -3.51666920401564
  C   1.79443479992577     -3.73053089073247     -0.47682277600574
  C   1.14981380134204     -4.63126158809501     -2.68159394224201
  H   1.32698016179847     -4.57896103526467      0.00635847031009
  C   3.53735515374735     -0.31303483568356     -2.32009430983939
  H   0.65111554910764     -5.42390374802314     -2.11988117758045
  H   2.76538976059268     -1.96726910150494      2.31853873637475
  H   3.40527223400188     -0.29674953006670     -3.40588040414073
  C   -1.71118288329431      1.94592486594421      0.29793434907719
  C   -2.41018225042616      1.42372952217198      1.46896967523108
  C   -2.43328794238553      2.18620110346107     -0.86099250786692
  C   -1.78697357992720      2.52928252201114     -2.05266709104718
  H   -3.50700307024047      2.06130386399518     -0.87471526288219
  C   -0.40716117745490      2.67896658073781     -2.05443238328934
  C   0.33234437764070      2.49134643782479     -0.88031527944494
  H   0.12038147481584      2.93599130541755     -2.96380929285761
  C   -0.32397197007676      2.11012458879018      0.28171049252863
  C   1.78390607748764      2.64450320498409     -0.84302598596118
  H   0.23070485607914      1.91250911199270      1.18962059765451
  C   -2.53821545208765      2.62923103594888     -3.30705551745105
  H   2.24143693704572      2.46149728395336      0.13921869836389
  H   -1.92015854033788      2.66241704209842     -4.21009179696513
  C   -2.63494592057026      0.23717777205577      3.43522067639957
  C   -2.63560934401545     -1.29195807348771      3.16640550205965
  N   -1.81022472508052      0.91209205071060      2.46541537800937
  N   -3.18001299300435     -1.42954494793302      1.81923865330656
  O   1.77186450443018     -3.72375835687466      2.40930625544517
  C   -0.95890233847571     -6.01609597050166     -4.03972780912841
  C   0.29969112851965     -5.43439814365500     -4.75648030025591
  N   -1.56138815215255     -5.07740728571090     -3.13424778677360
  N   1.10689901408605     -4.52689014412069     -3.94529474447498
  C   -5.65867634145689      1.51529134246628     -4.35121896429950
  C   -4.55542646437099      2.58324977865593     -4.58331291581233
  N   -5.07315638573883      0.23421036552020     -4.03987490594312
  N   -3.80586186098532      2.62197941964710     -3.33329925843491
  C   4.61684753763840      1.80604773986565     -2.35595851917462
  C   3.91848472770762      2.99597885249354     -1.65740646140338
  N   4.11383677380244      0.61551176836394     -1.67838531040563
  N   2.49119251496350      2.95599591807014     -1.85125683011058
  H   -3.50577773685112      1.44055463025339      1.40623474047520
  H   -1.64446626260656     -6.35844682068101     -4.82357866273209
  H   -0.66845143556986     -6.89369693636509     -3.46098766611066
  H   4.30724190215709      3.91578275716549     -2.09673724244400
  H   4.19861435134786      2.97534186485323     -0.59733648895267
  H   -2.23551586022338      0.40944109287371      4.43459284170035
  H   -3.67634349323090      0.57896581654229      3.41107550651255
  C   4.39339463675371      1.87631844760955     -3.86116772569532
  H   4.89426707396220      1.05944763844329     -4.37960257955346
  H   4.80647339076019      2.80640017924301     -4.24608195161145
  H   3.33594931929043      1.86110164905619     -4.11097463285436
  C   6.10996342263208      1.88375137372656     -2.04414111950757
  H   6.53039696023355      2.82032661077204     -2.40806889630751
  H   6.63826430870469      1.06258324548308     -2.52607973204062
  H   6.28204874395603      1.81324559627895     -0.97249773556001
  C   -0.14309002854478     -4.61241506854655     -5.96511722064796
  H   -0.76219010716415     -3.77221667255443     -5.65769608511630
  H   -0.70751261558997     -5.22073912881941     -6.67060336417447
  H   0.73015088476940     -4.20733925705315     -6.47047563405733
  C   1.17972936446425     -6.59371638237591     -5.21522630460906
  H   0.62282004169820     -7.25825661684144     -5.87560293823809
  H   1.53410756873822     -7.17187912543229     -4.36295682869408
  H   2.04645017120493     -6.21997571333386     -5.75641008427264
  C   -1.24131424440647     -1.86445014363981      3.38425395118601
  H   -1.21487875888426     -2.94524207246898      3.26039368007377
  H   -0.90925915131661     -1.65224236617442      4.39863878364151
  H   -0.52208507958199     -1.41952014549553      2.70190019727143
  C   -3.63174263806198     -1.94118997897307      4.12452459265569
  H   -4.63785963168518     -1.56718839617569      3.94778226604422
  H   -3.35779129722843     -1.73706464831192      5.15886810029399
  H   -3.64035195997688     -3.02050655042827      3.98152514835992
  C   -5.23942404730699      3.94005103209374     -4.74230907659860
  H   -5.77997840463404      4.20581173894326     -3.83654925283905
  H   -5.94009810749787      3.92432692158484     -5.57641290542078
  H   -4.49856050870900      4.71481127036820     -4.93342692295330
  H   -6.30902523573739      1.88379042510114     -3.54894711065471
  H   -6.24995244171821      1.42986416183554     -5.26321178140679
  C   -3.75182590487261      2.24491747029595     -5.83304085275684
  H   -3.25068854078708      1.28562859620616     -5.72992797395663
  H   -3.00941343442358      3.00980306000573     -6.05691159160441
  H   -4.41657047600735      2.18160165923633     -6.69248512630627
