118
Coordinates from ORCA-job _o_3_alde1_4_ami3_1_opt_B97-3c
  C   -5.37770805198285     -1.48470018558832     -0.49950597079715
  C   -5.59669959185458     -1.02345817900784      0.86734207884989
  C   -4.73378929984402     -2.68897521165160     -0.79928609455536
  C   -4.43849626264057     -3.02056100836423     -2.11464134812725
  H   -4.44814628118572     -3.34275315663394      0.01434125662563
  C   -4.75355774128714     -2.12008724974092     -3.14039829533433
  C   -5.37798348297781     -0.91499024056739     -2.85620483673390
  H   -4.46672903512296     -2.37349073349520     -4.15244185495913
  C   -5.71563795094994     -0.62417125278214     -1.53073270330419
  C   -5.51884591721292      0.11754992719262     -3.88388360917517
  H   -6.18702809570101      0.32567747577667     -1.31933973757118
  C   -3.74931946662716     -4.27727468109216     -2.40004471263812
  H   -5.08500396574698     -0.12881776721072     -4.86237312423635
  H   -6.18957761556793     -0.10336591669502      0.94846318468686
  H   -3.46866230819003     -4.87227291033287     -1.52004753726847
  C   1.99114276237704     -2.39224281375374     -1.30050977853886
  C   2.58463423636837     -2.89648203701008     -0.05073621523506
  C   2.29122682900452     -1.11291608250993     -1.76293486245800
  C   1.71447532764128     -0.64170776633995     -2.93607224571182
  H   2.97263554478027     -0.48496153072817     -1.20776034036442
  C   0.82912836398217     -1.46706322735408     -3.63373703915683
  C   0.53720906578584     -2.75683625820198     -3.19554720271956
  H   0.37205043204416     -1.10060092462070     -4.54648649428941
  C   1.12475900165498     -3.21026902857672     -2.01563201467429
  C   -0.34503400409545     -3.61762575067253     -3.98449108276463
  H   0.89284995664281     -4.20926533588923     -1.67009227643886
  C   2.01569465281640      0.69947041092392     -3.44297951922447
  H   -0.76178235748680     -3.16669713338785     -4.89553763666786
  H   2.29558219432027     -3.93776646854003      0.20323531416470
  H   1.36866168408779      1.06079660217172     -4.25428783403930
  C   -2.14122076652823      1.67210633012428      0.64217300255348
  C   -2.49042644369029      0.90973194382862      1.84187301495695
  C   -3.11045553835342      1.99867404114405     -0.30587615197751
  C   -2.75295503496948      2.58296394987424     -1.51851765730626
  H   -4.13649847346266      1.71761464404021     -0.11300587847719
  C   -1.42214257204210      2.91546553205003     -1.75240878922632
  C   -0.44591630554584      2.63680400886421     -0.80190919501549
  H   -1.13747759821213      3.35561677043389     -2.69591606720059
  C   -0.81007593565227      1.98540904856095      0.37757077730866
  C   0.96065878817368      2.94431189298315     -1.05808636655236
  H   -0.04331427811847      1.71436063311524      1.09483868047686
  C   -3.76667533278166      2.67924649770294     -2.57398756679679
  H   1.67488937601306      2.57667654538794     -0.30859394344457
  H   -4.79480292899552      2.51161998283784     -2.24206112514618
  C   -3.92332367830347     -0.06616086627508      3.40492966164524
  C   -5.22613474184494     -0.84359459676890      3.13589743281819
  N   -3.67491558361440      0.81855954353977      2.28808978718587
  N   -5.08012792616293     -1.56645753600092      1.89290902012396
  O   3.32827685198466     -2.26725527678711      0.67358737444742
  C   -2.76774083854538     -5.90398952087911     -3.75727181040965
  C   -1.45319690099359     -5.61245839317290     -4.49972229546136
  N   -3.47711841828735     -4.66049996875659     -3.57905757515844
  N   -0.59866242028057     -4.81554834882461     -3.65275735463999
  C   -5.88573823588383      2.37318210069803     -4.51368965509754
  C   -4.41790938594999      2.71340106853951     -4.86326148164109
  N   -5.99962676177033      1.25741051430221     -3.59379698406485
  N   -3.44869621328346      2.81409996969496     -3.79628711556725
  C   3.14521098084193      2.74510443377532     -3.46499240923188
  C   2.75244454649398      3.72461739388595     -2.33694812546822
  N   2.95848411036448      1.40388665295603     -2.97026097571044
  N   1.34073515103566      3.56861909610366     -2.09575608420756
  H   -1.65305120608244      0.37390434243242      2.31327534349404
  C   4.59775868381065      2.94757144496858     -3.88052226507833
  C   -0.72793664249973     -6.90679957674445     -4.85552628641005
  C   -5.54018263091001     -1.77571706111357      4.29410430344987
  C   -4.37371396329573      3.97947435428443     -5.71565530141751
  H   -4.04442645204799      1.89469456053927     -5.49216078637336
  C   -5.20502130362131      3.83742309649549     -6.98079303264595
  H   -3.33460841861367      4.20358428101968     -5.95189554629106
  H   -4.74293818316964      4.81355369182404     -5.11310973534083
  C   -6.63916035939946      3.43721516690363     -6.66786727670506
  H   -4.75090829648859      3.07677638717145     -7.62267247073917
  H   -5.18516601933320      4.76925780653278     -7.54785648144763
  C   -6.68816626279112      2.18868313847465     -5.80113995874792
  H   -7.13868298537108      4.25670877338911     -6.14347695936477
  H   -7.20072842432606      3.27539393644059     -7.58949804191157
  H   -6.28468324178755      1.33806075551845     -6.35677549014393
  H   -7.71630508725748      1.93373759289609     -5.54246553665891
  H   -6.30348167381731      3.23849083515048     -3.99010255417824
  H   -1.72163015653056     -5.07944465034151     -5.42336279578824
  C   -1.60759242351844     -7.85932192810200     -5.64767028016005
  H   -0.40097561320059     -7.38260921614582     -3.92875243340191
  H   0.17724732830535     -6.65783003740451     -5.41065550298976
  C   -2.89596217700772     -8.15577944540655     -4.89714489677176
  H   -1.06224100614220     -8.78195751652250     -5.85256372527918
  H   -1.84703429250465     -7.41850524159909     -6.61954890946807
  C   -3.63565309295304     -6.87243951770646     -4.55669330778751
  H   -2.65894904331746     -8.69641993938648     -3.97643829934321
  H   -3.54122413924954     -8.81230256452337     -5.48293882360181
  H   -4.53857286880291     -7.08470214294468     -3.98265444686237
  H   -3.96051662744379     -6.37039016732299     -5.47039562103380
  H   -2.50584176301942     -6.36714061512700     -2.79442719259712
  H   -6.02225446355513     -0.08811478120319      3.06017972767356
  C   -5.64940879014548     -1.00716696908233      5.60246317801190
  H   -4.75628681514785     -2.53338842432124      4.35928182810430
  H   -6.46818912178160     -2.30760734436078      4.08044633350329
  C   -4.39448041996703     -0.19010288323209      5.87490918793086
  H   -6.51184140889397     -0.33607994013872      5.55492697824260
  H   -5.84129466355097     -1.69529589492370      6.42737772333682
  C   -4.05249415345466      0.72147328098208      4.70524682416890
  H   -3.55634184440616     -0.86788355108997      6.05924169640974
  H   -4.51691957929541      0.40265572227222      6.78290794816402
  H   -3.11671754618774      1.25114595167797      4.88989734734178
  H   -4.82322009720789      1.48462180214254      4.57812552870432
  H   -3.11310223043036     -0.79981578028610      3.51954233613828
  H   2.48811351531431      2.96119739109781     -4.31994899052794
  C   4.87939443293893      4.38795891949384     -4.27569978972400
  H   4.82374610302400      2.26828090946906     -4.70375658545768
  H   5.23985124764996      2.65070844072819     -3.04910723811512
  C   4.50747034011165      5.34525137168234     -3.15415878139895
  H   4.30416586832271      4.64072212698856     -5.17115840532392
  H   5.93139664605328      4.50006772374462     -4.54280429351275
  C   3.05701813682383      5.16225049700866     -2.73889572282752
  H   4.67875842671689      6.37853266210700     -3.46020563923480
  H   5.16017860876980      5.16519771013536     -2.29528357658900
  H   2.80549171010052      5.81865631192999     -1.90476328522985
  H   2.39131854856307      5.43696538662953     -3.55957844516682
  H   3.35381962536551      3.45379948145973     -1.45698378668747
