207
Coordinates from ORCA-job _o_3_alde1_6_ami1_1_opt_B97-3c
  C   -2.85620319260201     -2.13931834295450     -0.39481832726997
  C   -2.85350153436127     -3.13106650384175     -1.52635613163883
  C   -2.57633099060369     -2.59958138344763      0.87866868715771
  C   -2.60814785690883     -1.74563584742456      1.97964466014467
  H   -2.30256398570396     -3.63168124260595      1.02366066050042
  C   -2.88432755275205     -0.39964415335258      1.78678737769091
  C   -3.17713503590687      0.08659892253233      0.51193824207475
  H   -2.90261560519311      0.28958518798092      2.62042474988014
  C   -3.15945732519264     -0.79404546243156     -0.57308031789783
  C   -3.55004225789065      1.48875006648913      0.31889039694520
  H   -3.39856847176180     -0.42417346717828     -1.56351525097275
  C   -2.32522129933219     -2.27788466361162      3.31146750640533
  H   -3.71149467646280      1.80833949600497     -0.72095717782389
  H   -1.96798834245451     -1.55828891638135      4.06143308513736
  C   1.94482146242593     -2.10850580136199     -0.14299147164983
  C   1.93320624128660     -2.08716081801865     -1.64875446882524
  C   2.71040230815759     -1.19860912622160      0.56258790879658
  C   2.71547210374718     -1.19933459809405      1.96082901950156
  H   3.29062835053607     -0.45660162719940      0.03783005555237
  C   1.92556678281634     -2.10629491176039      2.64577344663251
  C   1.17027074814087     -3.05081526660064      1.94894387863518
  H   1.88816280225101     -2.11086709375371      3.72702419470968
  C   1.18534308898875     -3.04647553036968      0.55596794902763
  C   0.33017695389803     -4.00693550407883      2.66315693731262
  H   0.56548050050335     -3.75286398966694      0.01711350021688
  C   3.54635016790592     -0.24690161843728      2.69503786473861
  H   -0.24350450724709     -4.69692728779331      2.03082661669409
  H   3.19912212654097      0.02127728575553      3.70363396019023
  C   1.34324300875373      3.99166514765611     -2.01663860613333
  C   1.23334754823126      4.37014396678258     -3.46686086113675
  C   0.25267259691014      4.13950088910571     -1.18139028321110
  C   0.34535157813797      3.83736493755850      0.18135607935679
  H   -0.69637300852984      4.48295987004246     -1.57001296906201
  C   1.55934907257834      3.40787869740292      0.69953156882686
  C   2.67284864628196      3.26340021400063     -0.12952455382622
  H   1.66132598862492      3.17524340490819      1.75123980970169
  C   2.54750046891915      3.53318891447932     -1.48971807167652
  C   3.96672716829172      2.84241401968965      0.40165751648926
  H   3.38669454680606      3.38398360586467     -2.15732263407576
  C   -0.81591178688727      3.97425551172161      1.05893503921541
  H   4.69274322406602      2.49307566083193     -0.34657054586581
  H   -0.67125827241323      3.65291902552425      2.09962633647615
  C   -1.95899797534744     -5.16721212362890     -2.26869855893808
  C   -3.46713641989155     -5.36789681359571     -1.95741976153220
  N   -1.64566396372400     -3.95548001125362     -1.51687795335025
  H   -1.37543018219728     -5.99741997629902     -1.85727439589044
  C   -1.62110639322297     -5.09625967930488     -3.77093108512533
  N   -3.94772633127254     -4.08757689551297     -1.41055832280821
  H   -3.99582001797315     -5.55315643344558     -2.89360636832431
  C   -3.79917640634189     -6.53885472880433     -1.02084912360530
  H   -2.15209729098432     -4.23530955342942     -4.19145859748713
  C   -2.05074816969311     -6.34371678587268     -4.53127936621297
  C   -0.12492880971897     -4.88643325254200     -3.96786751372639
  H   -4.86991559312929     -6.44445913110023     -0.80717560709704
  C   -3.05650247685308     -6.50450442381680      0.31003598246632
  C   -3.59874955343331     -7.88068558089545     -1.71035773356813
  H   0.43269157577761     -5.74277189620171     -3.58367825305515
  H   0.23731134981820     -3.99939593403350     -3.45650643023578
  H   0.12259965986586     -4.78256934109059     -5.02409726243403
  H   -1.56534124623338     -7.23199600114420     -4.12448816228228
  H   -1.76708115913705     -6.27011714492106     -5.58074505042518
  H   -3.12437396135241     -6.50919424411780     -4.49663827415238
  H   -4.14437934648533     -7.93413690012328     -2.65130433568847
  H   -3.94954402833620     -8.69483882054787     -1.07749619464162
  H   -2.54679009960840     -8.06583461231002     -1.92683283223913
  H   -1.97760494759198     -6.55257343653552      0.16877123231589
  H   -3.34611811520197     -7.35744119232276      0.92276752904224
  H   -3.26403495457085     -5.61159102159749      0.89552993180948
  C   2.38798537779126     -0.82782098090801     -3.57785388460715
  C   0.88142264761217     -1.21000151381897     -3.54170007950743
  N   2.80968763431571     -1.06230892381206     -2.20251073671828
  H   2.50624488463411      0.23823811718759     -3.80110144105915
  C   3.16431213443654     -1.61617055717748     -4.64604386699617
  N   0.61931929343968     -1.75719425001605     -2.19717940445133
  H   0.73043835207643     -2.02056980680321     -4.25652075240581
  C   -0.06818006742426     -0.07478089742920     -3.93044912498633
  H   2.96609600381409     -2.68026012412715     -4.47668241636159
  C   4.66780670215004     -1.38980822817921     -4.54833723573393
  C   2.68500997012113     -1.25465343951325     -6.04446698909412
  H   0.36800249066298      0.37118651308616     -4.82969104901207
  C   -0.15864517877109      1.01046912260695     -2.86708884191995
  C   -1.44775451536110     -0.59132482621389     -4.30579563996996
  H   3.18799960591413     -1.85932234174103     -6.79762037526306
  H   2.90476557164714     -0.21001777668432     -6.26474475712428
  H   1.61414545015147     -1.40224849965125     -6.17063947721829
  H   5.08909104693929     -1.74944365465930     -3.60992517001118
  H   4.90828803733701     -0.32931881364317     -4.63824123312935
  H   5.19013850511247     -1.91680993594599     -5.34594798442016
  H   -1.91455907038531     -1.09838123113043     -3.46509472006063
  H   -1.39906137658969     -1.29939549973218     -5.13226002868416
  H   -2.10268520148104      0.22622566706543     -4.60493033848908
  H   0.81494769419340      1.29912212774092     -2.47930417081817
  H   -0.76835511958840      0.70067159525429     -2.01782948306436
  H   -0.63539013491064      1.90255651869743     -3.26861897795156
  C   2.27144144342682      4.25846944467764     -5.58567283744436
  C   2.06921553586269      5.73296629657307     -5.14544238914471
  N   2.01331193417117      3.49873741300196     -4.35901053010161
  H   3.31665269973488      4.10806805332129     -5.87121032983545
  C   1.43188057531840      3.87266022947452     -6.81499098420867
  N   1.76306235847175      5.70190069107225     -3.71276899321391
  H   1.18572880805947      6.12021968142572     -5.65794481292138
  C   3.22770388583025      6.66443980104040     -5.50200622125389
  H   1.65582877359230      4.63466894136370     -7.57096525090987
  C   -0.07179055473217      3.87542512302800     -6.57273891308100
  C   1.86744024636843      2.52707427519491     -7.38022298646608
  H   3.42694842232250      6.49086533583713     -6.56468803100147
  C   4.50935368572450      6.35768971314753     -4.73496846500127
  C   2.83145640855994      8.12547066610857     -5.33599696035678
  H   2.94046315994714      2.49876654805777     -7.56884557293345
  H   1.35596627075718      2.30658022002358     -8.31706853050842
  H   1.63120309667688      1.71608351592454     -6.69021176573094
  H   -0.43801737743576      4.83326813069728     -6.20978325153572
  H   -0.35503111247986      3.11402789153504     -5.84495972445199
  H   -0.60849494731882      3.64978086778609     -7.49366195841014
  H   1.95850708255556      8.36947747638492     -5.94046760597395
  H   3.64094704712218      8.78943645673350     -5.63694789818804
  H   2.58402360598171      8.34518875020820     -4.29880047956866
  H   4.44738454594615      6.68827652235455     -3.69738098872018
  H   5.35216085360128      6.88538090243192     -5.17860576689382
  H   4.74926933576463      5.29532637255781     -4.73065017696206
  C   -1.99878198626436     -4.01894612037363      4.83985965621381
  C   -0.75056423993355     -4.89069526621700      4.53055650967170
  N   -2.45542808199174     -3.51329916859234      3.56934994875750
  H   -1.67210457543029     -3.20056214187641      5.49426758975944
  C   -3.13343955521567     -4.77087402329897      5.55485347040732
  N   0.23090844771042     -4.01714272174317      3.92989302777017
  H   -1.07504281764803     -5.65770892486863      3.81638727261165
  C   -0.15600023150037     -5.59984132921026      5.75488403633893
  H   -2.72367456923957     -5.13421413108043      6.49968388713434
  C   -3.65982814878893     -5.96361317143486      4.76897519113008
  C   -4.25928175639316     -3.80270092035549      5.89604770364782
  H   -0.93426536814441     -6.25861423104908      6.14661651567573
  C   0.26601176891699     -4.64107393906355      6.85889156465796
  C   1.00816871111937     -6.48117236494099      5.32185442452767
  H   -4.73521665124879     -3.42114386012526      4.99416209780202
  H   -3.88865747862703     -2.94824905292119      6.46338251590228
  H   -5.02500479983727     -4.29386543964250      6.49576120072160
  H   -4.47544021299720     -6.44517053799833      5.30841793360119
  H   -2.89265782871809     -6.71705024408206      4.59794605418487
  H   -4.03584150571025     -5.64824830147159      3.79830233780306
  H   1.82930614921563     -5.87826411495212      4.93768439344446
  H   0.70796327245373     -7.17354217009909      4.53466674060084
  H   1.38479458745964     -7.06850268232577      6.15870081425326
  H   0.71803779909429     -5.18556571458043      7.68764153319438
  H   -0.57472518405796     -4.07733377026342      7.26030813988417
  H   0.99650842124021     -3.92750027048934      6.48406700463965
  C   -4.14675568954975      3.63790283233970      1.06874721674722
  C   -3.02369930619713      4.56943582601655      1.57329644723011
  N   -3.71221976721376      2.28002962184598      1.29708150382040
  H   -4.27995401591824      3.83918271522671     -0.00265922899544
  C   -5.51159402277127      3.84549756637429      1.75286061746229
  N   -1.92082408074470      4.44369861972040      0.64945454917498
  H   -2.74325899348940      4.21714284602639      2.57488436623885
  C   -3.41365638713330      6.05370641453856      1.69713332815684
  H   -5.79296858421189      4.88425871608610      1.57072740208305
  C   -5.47739901654702      3.60916619565446      3.25586724885980
  C   -6.56716863469117      2.97248766880413      1.08821743619258
  H   -4.25828595700233      6.09482006804919      2.38700256801944
  C   -3.83624581759531      6.68194337027332      0.37754698735740
  C   -2.27782029662716      6.84064927694986      2.33711003675370
  H   -6.37341516168123      1.91572248649351      1.26322178652791
  H   -6.59098080143638      3.13220006084742      0.00976950877680
  H   -7.55777861514255      3.19911097774113      1.48022429481268
  H   -6.46135681378623      3.78224540670552      3.69110139720293
  H   -4.77497668140202      4.26794193149597      3.76377211799769
  H   -5.18578428528917      2.58474775208109      3.47440532771961
  H   -1.40406488433916      6.87398610653470      1.68869075339006
  H   -1.97299098789102      6.39502112166351      3.28457680479992
  H   -2.58464868795723      7.86695394912863      2.53493007187402
  H   -4.11718109255106      7.72457654722329      0.52536293319602
  H   -4.68972726542088      6.17274355706035     -0.06732542506694
  H   -3.02003327036197      6.64944334802914     -0.34020771000114
  C   5.35226409242567      1.21019579940133      2.96785309771113
  C   5.56171931686361      2.43051206136101      2.05098824563494
  N   4.60648487190191      0.23940163380934      2.19862166718713
  H   4.77272966923431      1.54100321815411      3.83882340077982
  C   6.65821676722275      0.58419306151070      3.49366499874666
  N   4.25296357431019      2.88788718466143      1.63678275842878
  H   6.13765972940321      2.08483472844371      1.18270874189052
  C   6.34476209361524      3.58815226909560      2.69407266620664
  H   7.19002012899810      1.37994229287159      4.01978418778800
  C   7.56073688739406      0.04716501586503      2.39188490605228
  C   6.35321271904583     -0.50012355940123      4.51829763411370
  H   7.31697284230284      3.18241996724285      2.98345396995542
  C   5.67148075301004      4.15955831308491      3.93354016461792
  C   6.60392800896303      4.67811221432776      1.66288854934239
  H   5.85085838330838     -1.35029365625842      4.05980546658866
  H   5.71253945556988     -0.12461675543395      5.31658406211177
  H   7.27248539542419     -0.86609583559676      4.97404180484206
  H   7.04909279518232     -0.72369522392591      1.81960098377939
  H   8.46234177211853     -0.39069263935225      2.81958770728584
  H   7.87328765428504      0.82390538466765      1.69616382827082
  H   7.25701407145937      5.44897447527690      2.06999846691331
  H   5.67573865794495      5.15605438226824      1.35480427065495
  H   7.08140296623971      4.27203961088917      0.77045631479443
  H   6.25136325571406      4.99053274923301      4.33454284227176
  H   5.56935795269850      3.42087148093932      4.72699103564006
  H   4.67657249898179      4.52667803324984      3.69143100025855
  H   3.78593604943129     -1.31158671564510     -2.12901034275025
  H   2.19380143165780     -3.09468373517167     -2.01073346517857
  H   0.23976731670419     -1.02406006984986     -1.60999929493290
  H   2.62447435193680      5.78064296861561     -3.18546511721171
  H   1.53881093173550      2.62313010840924     -4.53453788537932
  H   0.17047414518946      4.37976678533291     -3.73804219434797
  H   -4.15540160673931     -4.20219379793789     -0.42800926474129
  H   -0.85305101924125     -3.42978243896837     -1.87700566827788
  H   -2.97359155613752     -2.58393806039789     -2.47219401807218
