45

C -1.195300 1.024000 0.246700
C -1.272900 0.465900 1.642500
C -2.349000 1.128300 -0.517400
C -2.301400 1.674000 -1.790200
H -3.281300 0.767500 -0.109900
C -1.089900 2.121500 -2.295600
C 0.068700 2.024600 -1.540100
H -1.048100 2.547900 -3.286000
C 0.010700 1.474300 -0.268500
C 1.374800 2.487700 -2.126300
H 0.910000 1.395200 0.324900
C -3.549400 1.821700 -2.618000
C -2.194500 0.703100 3.722400
C -2.813300 -0.572300 3.105400
N -1.696000 1.476900 2.596900
N -2.281600 -0.598700 1.746000
C -4.202100 2.340500 -4.831700
C -4.875000 3.267900 -3.793800
N -3.287900 1.526700 -4.035800
N -4.042600 3.188200 -2.604400
C 2.210800 3.737400 -3.950300
C 2.824300 2.319400 -3.887300
N 1.204400 3.731400 -2.892900
N 1.904200 1.531300 -3.083100
H 1.241200 4.550400 -2.301000
H 2.128200 2.597100 -1.323600
H 1.135600 1.200700 -3.660600
H -1.909900 -1.500400 1.479300
H -0.272000 0.117600 1.960700
H -2.454300 2.011300 2.180900
H -3.356400 0.537900 -4.235500
H -3.247300 3.814800 -2.696300
H -4.350800 1.181200 -2.204600
H -3.905500 -0.496500 3.053900
H -2.557400 -1.463300 3.687300
H -1.338600 0.439300 4.351800
H -2.901400 1.279900 4.315500
H -3.617300 2.918200 -5.556800
H -4.942300 1.749200 -5.379900
H -5.867000 2.884800 -3.534300
H -4.975200 4.295700 -4.137300
H 1.711100 3.910700 -4.910100
H 2.975500 4.509400 -3.816300
H 3.785400 2.348200 -3.364200
H 2.973000 1.872000 -4.868200
