72

C -1.200200 0.455400 -1.602000
C -1.396100 -0.683600 -0.699300
C -2.287200 0.997300 -2.286000
C -2.110700 2.074100 -3.139300
H -3.271200 0.579700 -2.134900
C -0.837700 2.598600 -3.318700
C 0.255900 2.064000 -2.648300
H -0.692900 3.434400 -3.987500
C 0.070600 0.998200 -1.783700
C 1.622000 2.673000 -2.824800
H 0.924400 0.588900 -1.264100
C -3.287000 2.627700 -3.896200
O -2.444800 -1.237100 -0.485000
C -5.626600 2.605900 -4.062700
C -4.969500 2.126800 -5.393300
N -4.519200 2.539300 -3.119000
H -6.399300 1.900500 -3.730800
C -6.282400 3.996800 -4.191700
N -3.570700 1.841200 -5.082800
H -4.957900 2.970700 -6.096200
C -5.687800 0.950300 -6.067900
H -5.517800 4.709500 -4.524800
C -6.843300 4.468000 -2.849100
C -7.414900 3.970000 -5.216600
H -6.745500 1.225400 -6.141900
C -5.587800 -0.350800 -5.269800
C -5.137900 0.743900 -7.478200
H -8.173500 3.249900 -4.916300
H -7.055100 3.699700 -6.205500
H -7.882200 4.950200 -5.283000
H -7.559200 3.743500 -2.466100
H -7.351200 5.422300 -2.971200
H -6.061900 4.602300 -2.104200
H -4.065900 0.568500 -7.436800
H -5.316400 1.622700 -8.093600
H -5.616600 -0.110600 -7.951200
H -5.781600 -0.183500 -4.213100
H -4.602500 -0.800600 -5.375800
H -6.317600 -1.066600 -5.641500
C 3.855100 2.504000 -2.085000
C 3.277800 3.923200 -1.809600
N 2.689400 1.729400 -2.497400
H 4.215700 2.070300 -1.140600
C 5.031600 2.495000 -3.083500
N 1.825900 3.779400 -1.906500
H 3.586200 4.603400 -2.613200
C 3.684900 4.534800 -0.466500
H 5.733000 3.270700 -2.759400
C 4.607400 2.809500 -4.517700
C 5.754200 1.148600 -3.035500
H 3.338900 3.863700 0.329700
C 3.010500 5.895100 -0.291900
C 5.198800 4.693000 -0.346500
H 5.082700 0.338000 -3.312100
H 6.130000 0.950200 -2.034100
H 6.595800 1.144800 -3.724600
H 3.953700 2.035000 -4.915600
H 5.485800 2.863600 -5.157100
H 4.087100 3.762600 -4.576700
H 5.445800 5.170700 0.599000
H 5.579100 5.317200 -1.152500
H 5.704000 3.731600 -0.382500
H 3.216600 6.295800 0.698000
H 1.935500 5.810400 -0.421100
H 3.388100 6.596100 -1.032800
H 2.888900 1.089600 -3.255000
H 1.710700 3.077500 -3.850900
H 1.460600 3.506300 -0.996600
H -4.571900 3.228800 -2.381900
H -3.475100 0.860500 -4.836300
H -3.064500 3.661700 -4.227800
H -0.463100 -1.021000 -0.202900
