56

C -1.367600 1.321200 -1.175900
C -1.660500 0.548200 0.035400
C -2.337400 2.161100 -1.720400
C -2.060000 2.894000 -2.861800
H -3.309700 2.253600 -1.260800
C -0.804400 2.790900 -3.450500
C 0.171500 1.956400 -2.916100
H -0.583400 3.368500 -4.336700
C -0.114900 1.218800 -1.780700
C 1.533600 1.906700 -3.568000
H 0.627000 0.557200 -1.361700
C -3.103100 3.783400 -3.498700
O -0.893100 -0.187200 0.603200
C -5.220300 2.874200 -3.623300
C -4.772200 3.268200 -5.041200
N -4.381700 3.711200 -2.776400
H -4.915700 1.833800 -3.437700
C -6.724700 2.985800 -3.491400
N -3.326700 3.387300 -4.911000
H -5.154400 4.276400 -5.262200
C -5.329100 2.293700 -6.058800
H -7.039400 4.014800 -3.682900
C -7.346300 2.043000 -4.527100
H -4.964400 1.285700 -5.844900
C -6.856900 2.336700 -5.948400
H -8.433900 2.130700 -4.496400
H -7.088000 1.014200 -4.265400
H -7.203000 3.328600 -6.248300
H -7.294200 1.610400 -6.635900
C 3.325000 1.759600 -2.119000
C 3.510900 3.002600 -3.006400
N 2.413400 0.937800 -2.902100
H 2.781600 2.057400 -1.210700
C 4.668300 1.180300 -1.728100
N 2.169800 3.247500 -3.519500
H 4.133700 2.727000 -3.871100
C 4.201800 4.104500 -2.229700
H 5.222800 0.888100 -2.623700
C 5.432000 2.268700 -0.966500
H 3.597700 4.380600 -1.361500
C 5.561500 3.562900 -1.775400
H 4.903800 2.480700 -0.034100
H 6.428600 1.905300 -0.708800
H 6.176600 3.373400 -2.658300
H 6.071500 4.315000 -1.170600
H 2.938800 0.408000 -3.590300
H 1.408000 1.629300 -4.624300
H 1.658300 3.839500 -2.869800
H -4.793700 4.636200 -2.702300
H -2.892000 2.483900 -5.080800
H -2.733000 4.818500 -3.490100
H -2.692000 0.697800 0.416100
H -7.049400 2.711200 -2.486600
H -5.015000 2.563800 -7.068200
H 4.542200 0.296900 -1.100600
H 4.336000 4.992600 -2.849300
