56

C -1.309100 0.986600 -2.073800
C -1.628000 -0.209700 -1.280000
C -2.326400 1.673600 -2.732700
C -2.039100 2.808300 -3.486200
H -3.345300 1.327000 -2.660700
C -0.719700 3.247600 -3.573300
C 0.307600 2.569800 -2.920400
H -0.488800 4.128600 -4.157100
C 0.004300 1.436400 -2.169600
C 1.681700 3.044100 -3.023800
H 0.809100 0.921200 -1.668200
C -3.101300 3.530200 -4.175800
O -2.727400 -0.676500 -1.132800
C -5.330800 3.863700 -4.795200
C -6.289400 4.440100 -3.730000
N -4.298100 3.143900 -4.121400
H -4.929500 4.714400 -5.377100
C -6.061400 2.902500 -5.742000
N -7.153500 5.427200 -4.354600
H -5.677100 4.986100 -2.999300
C -7.017200 3.301500 -2.998600
C -6.760700 1.789900 -4.969400
C -7.747600 2.376100 -3.966600
C 4.796900 1.866400 -3.311500
C 3.969000 2.931500 -2.559400
N 6.058500 2.453700 -3.727600
H 4.253200 1.619900 -4.233700
C 4.916900 0.589700 -2.464200
N 2.627800 2.453200 -2.438900
H 4.021300 3.867000 -3.146500
C 4.529800 3.185100 -1.154100
C 5.494000 0.874600 -1.081200
C 4.622700 1.891500 -0.353000
H -0.740900 -0.673400 -0.803200
H 6.575100 1.794200 -4.299300
H 6.630600 2.672100 -2.919400
H -7.776700 4.980300 -5.018100
H -7.728700 5.876500 -3.650200
H -8.531100 2.925200 -4.497300
H -8.233000 1.573800 -3.407300
H -6.009800 1.207100 -4.435100
H -7.279100 1.128100 -5.666700
H -6.785600 3.470700 -6.329200
H -5.332500 2.474900 -6.434100
H -6.273300 2.725500 -2.447200
H -7.721500 3.729600 -2.279400
H -2.790500 4.424100 -4.740500
H 1.836400 3.944000 -3.640100
H 3.619300 1.482500 -0.229500
H 5.033800 2.100700 0.637000
H 5.515200 3.645400 -1.246800
H 3.876500 3.894800 -0.641600
H 5.542200 -0.135000 -2.993600
H 3.918800 0.163900 -2.354800
H 6.514100 1.259700 -1.169400
H 5.544700 -0.053700 -0.508300
