72

C -1.458500 2.072000 -0.839900
C -1.797000 1.796700 0.564700
C -2.460100 2.145800 -1.802900
C -2.139900 2.406300 -3.133600
H -3.496900 2.001300 -1.540200
C -0.805500 2.594400 -3.487200
C 0.207400 2.523700 -2.533200
H -0.552400 2.798100 -4.519300
C -0.128300 2.260100 -1.208000
C 1.596400 2.725500 -2.922000
H 0.648700 2.204600 -0.461600
C -3.182900 2.480200 -4.147000
O -1.006300 1.712600 1.467900
C -5.417300 2.429300 -4.850100
C -6.387700 3.570500 -4.416300
N -4.400800 2.344600 -3.852000
H -5.006000 2.666800 -5.847000
C -6.113500 1.052000 -4.945700
N -7.032400 3.305000 -3.145700
H -7.169000 3.662200 -5.177900
C -5.667500 4.930800 -4.315000
H -6.446700 0.767100 -3.942300
C -5.109700 0.002100 -5.422500
C -7.311300 1.080100 -5.892000
H -4.901000 4.847100 -3.536300
C -6.673300 6.002000 -3.896100
C -5.001900 5.344900 -5.625600
H -8.119400 1.695800 -5.506100
H -7.694400 0.070800 -6.027100
H -7.016000 1.466100 -6.865700
H -5.579800 -0.978000 -5.459000
H -4.257200 -0.052400 -4.749100
H -4.749100 0.246900 -6.420100
H -4.647900 6.370700 -5.548200
H -5.713300 5.290400 -6.447500
H -4.147300 4.716900 -5.862300
H -6.164800 6.943500 -3.702500
H -7.197800 5.689200 -2.999100
H -7.403900 6.158900 -4.686500
C 4.650800 1.492000 -2.111800
C 3.894500 2.809500 -2.469000
N 4.622300 1.193400 -0.694900
H 5.697800 1.609800 -2.410600
C 4.079100 0.276900 -2.871000
N 2.533800 2.624500 -2.086400
H 4.003800 3.004800 -3.550600
C 4.442800 4.040400 -1.710700
H 3.037700 0.145100 -2.556700
C 4.866900 -0.973500 -2.483100
C 4.123400 0.453800 -4.387300
H 4.257900 3.892500 -0.641800
C 3.682400 5.292100 -2.149100
C 5.937600 4.240800 -1.947900
H 3.424100 1.212700 -4.727700
H 3.858600 -0.482800 -4.873200
H 5.125000 0.733600 -4.708500
H 4.893400 -1.075400 -1.403100
H 5.888900 -0.900600 -2.848600
H 4.407100 -1.859500 -2.914500
H 6.255900 5.180500 -1.501500
H 6.150400 4.280400 -3.014500
H 6.529100 3.443300 -1.506100
H 2.616500 5.181700 -1.962700
H 3.832500 5.475700 -3.211700
H 4.037600 6.159900 -1.597900
H -2.883800 1.666400 0.740900
H 3.657600 1.161900 -0.382000
H 5.098700 1.912200 -0.163800
H -7.623300 2.484500 -3.205600
H -6.318900 3.126300 -2.446800
H 1.767700 2.972000 -3.982400
H -2.838000 2.657500 -5.178100
