138

C -0.696700 -2.538600 -2.868200
C 0.587400 -2.733900 -2.208400
C -1.878200 -2.547700 -2.136900
C -3.100900 -2.287900 -2.757900
H -1.873400 -2.762000 -1.078900
C -3.125400 -1.970100 -4.111500
C -1.947900 -1.953000 -4.857200
H -4.052700 -1.728000 -4.608300
C -0.745000 -2.264700 -4.234200
C -1.936000 -1.526600 -6.247400
H 0.180400 -2.271700 -4.788400
C -4.345300 -2.349800 -2.004200
H -0.958600 -1.595200 -6.748300
H 0.570000 -2.683400 -1.108700
H -5.259400 -2.110800 -2.572100
C 1.062000 0.692000 -3.572700
C 2.179400 -0.237900 -3.630400
C 0.254500 0.867700 -4.692100
C -0.924200 1.605800 -4.610100
H 0.502000 0.404800 -5.634800
C -1.264600 2.211500 -3.403800
C -0.443900 2.080200 -2.286000
H -2.181700 2.780600 -3.330800
C 0.709500 1.306900 -2.374900
C -0.821200 2.697100 -1.021000
H 1.324600 1.167300 -1.501200
C -1.850500 1.644200 -5.731400
H -1.753500 3.284600 -1.027300
H -2.852100 2.043100 -5.502100
C 3.716700 -1.692500 -2.675600
C 2.913600 -2.935300 -2.182300
N 2.811100 -0.586300 -2.596200
H 4.008500 -1.887100 -3.721600
C 4.977400 -1.395300 -1.846500
N 1.652900 -2.899700 -2.860100
H 2.774700 -2.834900 -1.092600
C 3.622400 -4.273200 -2.470900
H 5.603700 -2.293500 -1.833500
C 4.641500 -0.994200 -0.412500
C 5.758400 -0.273400 -2.531300
H 4.641100 -4.209800 -2.075300
C 3.682900 -4.585700 -3.963600
C 2.890700 -5.395000 -1.733800
H 6.674900 -0.059900 -1.986300
H 5.153700 0.630200 -2.564400
H 6.021800 -0.550700 -3.550200
H 5.537100 -0.641400 0.094100
H 4.244900 -1.834200 0.151400
H 3.902600 -0.198300 -0.421000
H 1.870100 -5.481500 -2.101000
H 2.858100 -5.198800 -0.663900
H 3.396600 -6.344600 -1.892400
H 4.093200 -5.581300 -4.117800
H 4.314300 -3.875700 -4.491000
H 2.683300 -4.546100 -4.387600
C -5.622600 -2.786500 -0.095100
C -5.548600 -1.926900 1.205700
N -4.374500 -2.678800 -0.788100
H -6.447300 -2.419400 -0.730300
C -5.897100 -4.290800 0.150500
N -4.189800 -1.743900 1.688400
H -6.101600 -2.435300 2.002400
C -6.194100 -0.540800 0.999600
H -5.808600 -4.773100 -0.832200
C -7.317300 -4.520500 0.659800
C -4.873900 -4.937900 1.079000
H -5.722700 -0.075100 0.125400
C -5.939400 0.341100 2.221500
C -7.702000 -0.632700 0.770000
H -5.031700 -6.014300 1.108700
H -4.969300 -4.555300 2.092500
H -3.867200 -4.748200 0.714900
H -8.047400 -4.080900 -0.016100
H -7.457200 -4.084400 1.645600
H -7.514700 -5.587900 0.730400
H -7.952000 -1.174400 -0.138400
H -8.123100 0.367000 0.687800
H -8.178700 -1.135900 1.608600
H -6.442900 -0.075400 3.090600
H -6.321600 1.344600 2.047700
H -4.878100 0.395100 2.435900
C -2.772500 -0.448800 -8.118500
C -2.573100 1.078100 -7.872500
N -2.948100 -1.042300 -6.824600
H -1.849100 -0.820800 -8.593000
C -3.972800 -0.790400 -9.016300
N -1.557400 1.189600 -6.869800
H -3.530500 1.487500 -7.506000
C -2.153400 1.856000 -9.134300
H -3.841300 -0.282800 -9.977400
C -5.298100 -0.358500 -8.394800
C -3.980200 -2.298700 -9.266900
H -2.899700 1.668200 -9.912700
C -0.777500 1.435000 -9.642900
C -2.157500 3.352200 -8.819300
H -3.045700 -2.619400 -9.722900
H -4.797400 -2.570100 -9.931300
H -4.104200 -2.829200 -8.325500
H -5.358300 -0.728500 -7.375400
H -6.128500 -0.764700 -8.968100
H -5.394900 0.724000 -8.382600
H -3.135500 3.670500 -8.463100
H -1.914100 3.926900 -9.710000
H -1.420300 3.575400 -8.051000
H -0.459300 2.098300 -10.444200
H -0.793300 0.420400 -10.031900
H -0.055500 1.489500 -8.832800
C 0.609200 4.070000 1.706100
C -0.525700 3.118200 1.263500
N 0.619200 5.179600 0.756300
H 1.547700 3.489600 1.666700
C 0.446500 4.620400 3.135700
N -0.121100 2.547000 0.015500
H -1.443100 3.722100 1.147600
C -0.821300 1.956300 2.237600
H 0.399200 3.768000 3.819800
C -0.824500 5.453000 3.278700
C 1.665400 5.455300 3.534600
H -1.119000 2.388000 3.197600
C 0.394100 1.056300 2.440700
C -1.997300 1.134800 1.708800
H 2.588400 4.911700 3.340600
H 1.624600 5.687900 4.596500
H 1.688300 6.394200 2.987100
H -0.854600 6.205400 2.495600
H -0.842600 5.947300 4.247400
H -1.711300 4.830500 3.196700
H -2.273000 0.363600 2.424000
H -1.731100 0.654700 0.769000
H -2.864200 1.769900 1.537100
H 0.756300 0.705900 1.478200
H 0.120000 0.196500 3.048400
H 1.198100 1.587000 2.943400
H 2.382500 -0.678800 -4.618400
H -3.639800 -1.295700 0.961500
H -3.764600 -2.647300 1.859200
H 0.675800 4.814800 -0.188800
H 1.438000 5.757800 0.907500
