111

C -3.248700 1.242200 0.472300
C -2.876400 0.385900 1.588400
C -2.698800 2.514400 0.374700
C -2.914500 3.294300 -0.762100
H -2.075200 2.911500 1.162800
C -3.672800 2.790800 -1.811100
C -4.213900 1.508000 -1.736300
H -3.818900 3.359700 -2.716400
C -4.014500 0.751500 -0.586300
C -4.798400 0.897400 -2.921600
H -4.408600 -0.250400 -0.507700
C -2.265600 4.603000 -0.879700
H -5.086800 -0.159600 -2.824100
H -2.165100 0.830100 2.301100
C -0.815600 -0.470400 -1.110200
C -1.266000 -1.527900 -0.219800
C -1.438200 -0.317700 -2.343300
C -1.155600 0.779400 -3.156400
H -2.177600 -1.026800 -2.682500
C -0.212200 1.709000 -2.735200
C 0.449600 1.551300 -1.516500
H 0.025400 2.571400 -3.339600
C 0.134500 0.467000 -0.705700
C 1.474100 2.500300 -1.100100
H 0.607600 0.337800 0.255900
C -1.919100 1.000300 -4.376500
H -1.727900 1.953000 -4.894100
C -1.579800 -2.524700 1.849900
C -2.626600 -1.668400 2.639600
N -0.884300 -1.624700 0.979100
H -2.147300 -3.270400 1.267900
C -0.576800 -3.253300 2.760400
N -3.255000 -0.813800 1.679400
H -2.067600 -1.076800 3.383800
C -3.686100 -2.517500 3.363100
H -1.138500 -3.826200 3.505300
C 0.234000 -4.231500 1.909900
C -4.485300 -1.612000 4.300600
C -4.630000 -3.217500 2.389300
O -1.493200 5.067500 -0.078200
C -5.081600 0.787900 -5.227300
C -3.669300 0.520900 -5.848800
N -4.840400 1.514100 -4.020800
H -5.537700 -0.194200 -5.016600
C -6.005600 1.587800 -6.161100
N -2.794600 0.182200 -4.768600
H -3.345500 1.453200 -6.342500
C -3.686200 -0.617500 -6.886500
H -5.955900 1.140800 -7.159700
C -7.442600 1.480200 -5.651600
H -4.535800 -0.454900 -7.558000
C -2.399700 -0.563200 -7.709900
C 2.358200 5.848700 -1.339100
C 2.847400 4.364800 -1.419700
N 1.038900 6.080500 -1.898600
H 3.048400 6.453700 -1.943600
C 2.405600 6.427300 0.089500
N 1.767300 3.509300 -1.794400
H 3.269400 4.065400 -0.445100
C 3.976000 4.200400 -2.467200
H 1.900400 7.396700 0.019500
C 1.658800 5.587800 1.124700
H 4.733600 4.959000 -2.239700
C 4.623000 2.822400 -2.339500
H -2.036300 -2.193000 -0.639900
H 0.949400 5.571700 -2.771300
H 1.991300 2.256900 -0.158200
H -2.524600 5.154000 -1.803700
C 0.362300 -2.285500 3.475100
H -3.169800 -3.270600 3.967100
C -5.597500 3.055600 -6.252700
C -3.825300 -1.989100 -6.231800
C 3.845700 6.668500 0.538900
C 3.467900 4.413500 -3.890200
H 0.325500 5.723900 -1.271100
H -4.107100 -3.964300 1.797700
H -5.071200 -2.486300 1.718100
H -5.424300 -3.718000 2.938400
H -0.418900 -4.946000 1.412500
H 0.936200 -4.783200 2.530600
H 0.792700 -3.687700 1.151200
H 1.136200 -2.839800 4.001300
H -0.171000 -1.679200 4.202500
H 0.830300 -1.628400 2.748000
H -4.999900 -0.844200 3.726800
H -3.830700 -1.125000 5.020600
H -5.225600 -2.191000 4.847700
H 2.167200 4.644700 1.314200
H 0.643500 5.376100 0.802200
H 1.606200 6.132600 2.065000
H 3.894100 2.039400 -2.541000
H 5.022400 2.673000 -1.337900
H 5.439600 2.722500 -3.051000
H 3.858300 7.131500 1.523100
H 4.360800 7.327900 -0.156200
H 4.399700 5.733800 0.597300
H 3.028700 5.401000 -4.003200
H 2.715100 3.667000 -4.129900
H 4.289700 4.320500 -4.597200
H -7.769000 0.442400 -5.626700
H -8.117300 2.036100 -6.298200
H -7.511500 1.889100 -4.645700
H -1.535900 -0.693600 -7.061300
H -2.307000 0.392200 -8.222400
H -2.394100 -1.354100 -8.456300
H -4.763600 -2.076000 -5.690800
H -3.008300 -2.147800 -5.533700
H -3.798300 -2.766900 -6.991700
H -5.612800 3.503300 -5.263300
H -6.290300 3.593600 -6.895700
H -4.598000 3.163700 -6.664800
