207

C -1.220200 -0.155900 -3.184000
C -0.029500 0.005100 -4.008000
C -1.637600 -1.424100 -2.790900
C -2.774700 -1.586400 -2.005300
H -1.071200 -2.289100 -3.093900
C -3.513300 -0.467900 -1.634600
C -3.124600 0.806500 -2.042600
H -4.408400 -0.563500 -1.039100
C -1.965200 0.956500 -2.798600
C -3.923300 1.971900 -1.693900
H -1.645200 1.945900 -3.095200
C -3.176700 -2.917200 -1.568100
H -3.475900 2.947700 -1.937200
H 0.200900 1.033400 -4.325900
H -3.854900 -2.954200 -0.700800
C 2.413000 -2.194400 0.907000
C 3.682700 -1.570000 0.564600
C 1.866100 -2.017700 2.173800
C 0.640300 -2.586000 2.506000
H 2.391300 -1.425900 2.905100
C -0.028000 -3.362600 1.565900
C 0.520000 -3.573500 0.301800
H -0.974400 -3.826800 1.797700
C 1.730700 -2.970200 -0.027700
C -0.154700 -4.427000 -0.665300
H 2.149400 -3.114200 -1.014300
C 0.062800 -2.337400 3.820400
H 0.261500 -4.418000 -1.684500
H 4.048800 -1.749400 -0.457800
H -1.016300 -2.533700 3.920600
C 0.025000 2.984500 0.982400
C 0.837200 3.703800 0.011400
C -1.362000 2.997000 0.872400
C -2.157600 2.344400 1.808500
H -1.829000 3.519300 0.054400
C -1.555200 1.679700 2.870200
C -0.168000 1.674400 3.007700
H -2.145300 1.174200 3.619200
C 0.616200 2.317800 2.053800
C 0.455300 1.026400 4.152600
H 1.693000 2.309200 2.151300
C -3.607100 2.362200 1.659000
H 1.553900 0.958800 4.127300
H 1.911700 3.780900 0.240000
H -4.160400 1.571300 2.189400
C 1.407600 -1.404700 -6.576100
C 1.813700 -0.824500 -5.197200
N 0.412500 -0.499100 -7.141200
H 0.990000 -2.410400 -6.390400
C 2.580500 -1.550300 -7.565000
N 0.677900 -0.983800 -4.341100
H 2.054400 0.242000 -5.354200
C 3.015600 -1.521100 -4.529300
H 3.329400 -2.202100 -7.105900
C 3.214800 -0.200700 -7.890000
C 2.117900 -2.233600 -8.853900
H 3.873800 -1.457000 -5.204200
C 2.717600 -2.987200 -4.226300
C 3.379700 -0.779900 -3.243100
H 1.484400 -1.571700 -9.439000
H 1.566100 -3.145700 -8.633200
H 2.979700 -2.496700 -9.463300
H 3.942500 -0.311200 -8.690700
H 3.722100 0.213100 -7.022600
H 2.443000 0.495500 -8.205700
H 2.551700 -0.810500 -2.537500
H 3.614300 0.262100 -3.450000
H 4.253100 -1.238900 -2.783500
H 1.797100 -3.058300 -3.653400
H 3.532300 -3.426100 -3.652800
H 2.600800 -3.560600 -5.142000
C 6.634900 -0.669700 2.094500
C 5.546000 -0.237000 1.060500
N 6.103200 -1.125800 3.366300
H 7.251400 0.210700 2.317500
C 7.592000 -1.753500 1.554000
N 4.311500 -0.866700 1.399000
H 5.878900 -0.517600 0.045000
C 5.337500 1.296200 1.049400
H 8.163200 -2.087000 2.427100
C 8.571300 -1.175600 0.534300
C 6.876300 -2.970800 0.970800
H 6.317800 1.751300 0.865000
C 4.788700 1.815500 2.375700
C 4.403900 1.687300 -0.095400
H 6.134000 -3.360000 1.663300
H 7.598000 -3.759700 0.769900
H 6.379000 -2.726100 0.035300
H 8.049300 -0.803000 -0.344600
H 9.271800 -1.942600 0.211700
H 9.138000 -0.355000 0.968300
H 3.412700 1.263000 0.056100
H 4.786500 1.327400 -1.048500
H 4.313700 2.770300 -0.151200
H 4.552400 2.875300 2.293300
H 5.516100 1.696800 3.174800
H 3.884300 1.270600 2.636300
C 0.347400 6.331200 -2.211800
C 1.099100 4.995500 -1.928600
N -0.962400 6.127300 -2.800600
H 0.956300 6.886500 -2.934200
C 0.194400 7.265100 -0.985300
N 0.317500 4.234700 -1.008300
H 2.105700 5.221400 -1.534500
C 1.289600 4.151900 -3.214700
H -0.086600 8.236900 -1.407600
C 1.507900 7.444500 -0.226800
C -0.922800 6.856500 -0.026800
H 0.301000 3.823900 -3.555100
C 2.119200 2.908500 -2.897500
C 1.973700 4.935800 -4.333400
H -0.955700 7.554300 0.807600
H -0.763500 5.857200 0.366000
H -1.883100 6.886900 -0.532800
H 1.418900 8.271400 0.474300
H 2.326100 7.664200 -0.910000
H 1.752300 6.550300 0.341700
H 2.903700 5.373400 -3.975700
H 1.343200 5.731300 -4.721800
H 2.207600 4.265200 -5.158100
H 3.107600 3.193000 -2.541400
H 2.241900 2.304300 -3.793800
H 1.639300 2.295800 -2.137000
C -3.122100 -5.250700 -1.664100
C -1.778600 -5.954800 -1.341600
N -2.764700 -3.953500 -2.151800
H -3.705000 -5.176000 -0.729300
C -3.976600 -5.980700 -2.719900
N -1.135600 -5.150500 -0.345200
H -1.187600 -5.969200 -2.273700
C -1.920900 -7.394300 -0.814400
H -4.195600 -6.983800 -2.340900
C -3.258700 -6.092200 -4.061800
C -5.303500 -5.241300 -2.893800
H -2.422100 -7.991500 -1.582600
C -2.727700 -7.452700 0.479200
C -0.527000 -7.981200 -0.590200
H -5.130800 -4.243900 -3.292200
H -5.822400 -5.148300 -1.941600
H -5.948000 -5.782300 -3.583000
H -2.405100 -6.761700 -3.996600
H -2.912100 -5.110800 -4.373800
H -3.938700 -6.482600 -4.815900
H -0.005000 -7.418600 0.180600
H 0.061000 -7.940400 -1.505100
H -0.599700 -9.019500 -0.274600
H -2.687800 -8.455600 0.898700
H -3.770200 -7.199400 0.305000
H -2.311200 -6.753700 1.199000
C -5.773000 3.055900 -0.790700
C -5.589400 3.199400 0.744400
N -5.063200 1.868500 -1.165600
H -5.315300 3.946200 -1.254600
C -7.236600 2.944400 -1.251700
N -4.175300 3.236800 0.954700
H -6.039600 2.316000 1.230000
C -6.232500 4.470400 1.334300
H -7.763300 3.852400 -0.941600
C -7.934700 1.725600 -0.655500
C -7.268600 2.872000 -2.778600
H -7.301100 4.448600 1.098100
C -5.613600 5.744500 0.766000
C -6.082500 4.448300 2.855600
H -6.758000 1.973800 -3.118700
H -6.774400 3.737100 -3.216400
H -8.295600 2.845800 -3.135700
H -7.334600 0.838400 -0.837000
H -8.910400 1.591500 -1.117400
H -8.080300 1.839800 0.415600
H -6.588200 5.304500 3.296100
H -5.030700 4.488900 3.130800
H -6.515500 3.542000 3.274800
H -4.532700 5.705800 0.870800
H -5.988900 6.611600 1.305100
H -5.860500 5.867900 -0.285000
C 0.172000 -1.578500 6.028700
C 0.431700 -0.059600 6.215700
N 0.767700 -1.908700 4.771300
H -0.920300 -1.739800 6.006400
C 0.781300 -2.461600 7.135500
N -0.223700 0.596000 5.123300
H 1.523900 0.089600 6.164300
C -0.094500 0.520400 7.540800
H 0.339000 -2.159900 8.090100
C 2.298700 -2.320000 7.212700
C 0.402300 -3.920300 6.878300
H 0.408200 0.003400 8.364100
C -1.604000 0.348300 7.680700
C 0.273600 2.002600 7.614000
H 0.764100 -4.551300 7.686800
H 0.843800 -4.265300 5.945800
H -0.678200 -4.033800 6.812200
H 2.705900 -3.055300 7.903300
H 2.584700 -1.332000 7.563500
H 2.732900 -2.482800 6.230200
H -0.220200 2.549200 6.813600
H 1.348600 2.138800 7.513000
H -0.037900 2.423500 8.567300
H -1.871800 -0.698600 7.797100
H -2.098000 0.741700 6.796900
H -1.961700 0.889200 8.554100
H -1.468100 5.457300 -2.231000
H -0.877600 5.739200 -3.733100
H 0.013100 -0.904800 -7.979600
H -0.346500 -0.367600 -6.480400
H 5.531700 -1.952000 3.221600
H 5.489300 -0.421100 3.757500
