159

C -3.208000 -1.490100 -0.612200
C -3.565900 -1.281400 0.784800
C -2.562100 -2.664200 -1.000400
C -2.184400 -2.864400 -2.322600
H -2.364400 -3.410400 -0.246000
C -2.448300 -1.870500 -3.265000
C -3.098400 -0.698900 -2.895100
H -2.142000 -2.039600 -4.286000
C -3.477000 -0.514700 -1.565100
C -3.362100 0.332300 -3.888700
H -3.977600 0.403300 -1.297700
C -1.511800 -4.096700 -2.705400
H -2.826400 0.219400 -4.844400
H -3.960200 -0.284700 1.037400
H -1.252500 -4.771800 -1.875100
C 3.129200 -2.397200 -0.321500
C 2.980200 -2.836100 1.060000
C 3.860300 -1.245500 -0.614100
C 3.985000 -0.795500 -1.922900
H 4.325000 -0.715300 0.203300
C 3.360300 -1.503400 -2.949600
C 2.635500 -2.657300 -2.674900
H 3.462000 -1.136300 -3.959400
C 2.524000 -3.100000 -1.356600
C 1.984900 -3.383500 -3.756300
H 1.954200 -3.996100 -1.163900
C 4.753000 0.407800 -2.205400
H 1.918000 -2.847300 -4.715900
H 2.287900 -3.676200 1.226400
H 5.116800 0.955200 -1.322100
C 0.718900 3.576400 -0.218900
C 1.016600 3.652500 1.205500
C -0.603000 3.638200 -0.660800
C -0.906700 3.535000 -2.012800
H -1.380900 3.768100 0.076200
C 0.127000 3.356600 -2.932100
C 1.449600 3.300700 -2.508000
H -0.127200 3.271600 -3.977500
C 1.739600 3.412500 -1.148000
C 2.517900 3.108500 -3.478500
H 2.772600 3.363600 -0.839000
C -2.292700 3.603300 -2.451000
H 2.195700 2.795800 -4.484200
H 2.066500 3.478200 1.488400
H -3.042400 3.635400 -1.645200
C -2.407800 -2.199500 3.823900
C -3.701400 -1.949400 3.025400
N -1.414000 -1.209000 3.433100
N -3.410100 -2.188500 1.646900
C -4.793300 -2.921700 3.481600
C 2.901600 -1.429600 4.136900
C 3.392000 -2.665500 3.359000
N 1.599600 -1.033100 3.617600
C 2.768700 -1.761400 5.622400
N 3.596900 -2.267800 2.001700
C -0.473900 2.808900 4.114000
C 0.404600 3.889000 3.453900
N -0.069300 1.501800 3.614500
C -0.296200 2.840500 5.631300
N 0.113900 3.884600 2.054800
C -0.548100 -5.587200 -4.209000
C 0.869700 -5.206000 -4.686900
N -1.249300 -4.378800 -3.906000
N 1.532700 -4.550100 -3.604200
C -4.349900 2.295100 -4.664800
C -3.999100 3.658300 -4.030600
N -4.153800 1.288200 -3.670000
N -2.616200 3.632500 -3.669300
C 5.721300 2.008400 -3.588300
C 4.744200 3.055000 -4.165900
N 4.994300 0.795200 -3.380800
N 3.730400 3.291900 -3.187100
C 5.498900 4.355900 -4.449700
H -0.071100 1.515600 2.598800
H -0.740300 0.786700 3.892000
H -0.498300 -1.447300 3.812000
H -1.315500 -1.213700 2.422100
H 1.661100 -0.920800 2.609900
H 1.322600 -0.126500 3.990700
C -1.279000 -6.345400 -5.317100
C -4.248600 4.776800 -5.042400
H -1.523000 3.049800 3.866700
C -0.631200 4.215800 6.196400
H 0.739200 2.583100 5.862100
H -0.936700 2.077700 6.078400
C 0.242200 5.282400 5.543800
H -0.480100 4.219200 7.277800
H -1.682500 4.441400 6.003400
C 0.062500 5.265800 4.030600
H 1.289900 5.091100 5.787000
H -0.017900 6.269300 5.932000
H 0.702600 6.016700 3.562300
H -0.972000 5.499000 3.772300
H 1.464800 3.650300 3.655600
H -4.028100 -0.908600 3.203200
C -5.053900 -2.784200 4.976800
H -4.468500 -3.937200 3.248400
H -5.705900 -2.722800 2.915500
C -3.773600 -3.034800 5.767100
H -5.826700 -3.493600 5.279900
H -5.419900 -1.777200 5.190300
C -2.680500 -2.070300 5.321800
H -3.441200 -4.062000 5.600700
H -3.963700 -2.912200 6.835200
H -1.755200 -2.263700 5.868000
H -2.981400 -1.041800 5.529700
H -2.085100 -3.232200 3.602000
H 3.665100 -0.642100 4.008200
C 4.720100 -3.156500 3.942700
H 2.628900 -3.460400 3.444600
C 4.575300 -3.481800 5.424500
H 5.468200 -2.374500 3.800700
H 5.047700 -4.039000 3.388700
C 4.091300 -2.257700 6.195100
H 5.535600 -3.818500 5.820400
H 3.856800 -4.295300 5.548900
H 2.432600 -0.870000 6.155800
H 2.000000 -2.527900 5.737000
H 3.968300 -2.505600 7.251300
H 4.839200 -1.464800 6.121000
H 4.321800 2.655900 -5.106100
C 6.643700 4.113200 -5.426300
H 5.882800 4.747400 -3.506000
H 4.798700 5.088400 -4.857100
C 7.602900 3.062400 -4.876100
H 7.176900 5.049000 -5.605300
H 6.238800 3.769500 -6.381100
C 6.860300 1.764900 -4.578500
H 8.061400 3.436300 -3.957600
H 8.401300 2.872000 -5.596100
H 7.542300 1.023300 -4.157700
H 6.439100 1.350600 -5.496000
H 6.121800 2.411600 -2.640500
H -4.649300 3.793700 -3.147200
C -5.702400 4.774700 -5.500600
H -3.582800 4.628500 -5.894200
H -3.995600 5.733800 -4.581500
C -6.069700 3.424400 -6.108000
H -5.857800 5.568600 -6.233700
H -6.352100 4.975600 -4.645500
C -5.814400 2.301300 -5.109500
H -5.469100 3.255300 -7.004900
H -7.121100 3.420500 -6.402600
H -6.052000 1.333000 -5.555500
H -6.444600 2.428200 -4.227600
H -3.694700 2.139300 -5.541100
H -0.438800 -6.230400 -3.317000
C -0.507700 -7.599600 -5.711400
H -1.388600 -5.682200 -6.176700
H -2.279200 -6.607600 -4.966100
C 0.903900 -7.239200 -6.163700
H -1.035800 -8.118800 -6.513700
H -0.451800 -8.275000 -4.854500
C 1.637500 -6.473800 -5.068500
H 0.849400 -6.621400 -7.063100
H 1.459800 -8.145500 -6.412300
H 2.638100 -6.192800 -5.404200
H 1.744500 -7.096000 -4.178300
H 0.774700 -4.547500 -5.569400
