117

C -4.543700 -1.100200 -0.698100
C -5.501900 -0.615800 0.282900
C -3.761200 -2.225300 -0.456900
C -2.784400 -2.618000 -1.368900
H -3.913900 -2.802500 0.440200
C -2.561400 -1.846100 -2.508100
C -3.341300 -0.722300 -2.766200
H -1.779200 -2.127900 -3.200600
C -4.346600 -0.373800 -1.868500
C -3.066500 0.128000 -3.921000
H -4.948000 0.492600 -2.093800
C -2.012900 -3.831800 -1.134700
H -2.094800 -0.048800 -4.397700
H -6.118800 0.235100 -0.044200
H -1.293400 -4.113900 -1.919800
C 3.847200 -3.357200 -1.945500
C 4.597300 -4.245700 -2.820800
C 4.204200 -2.014600 -1.818500
C 3.484800 -1.164300 -0.987100
H 5.050100 -1.652100 -2.383000
C 2.390700 -1.663700 -0.277400
C 2.036900 -3.003600 -0.376300
H 1.838500 -0.987700 0.357600
C 2.770100 -3.844000 -1.215000
C 0.938200 -3.545200 0.419700
H 2.480900 -4.882200 -1.274000
C 3.886000 0.228500 -0.860200
H 0.374700 -2.810600 1.007700
H 4.252600 -5.291100 -2.851800
H 4.798500 0.511800 -1.408000
C -2.758600 1.883600 1.106200
C -3.443500 1.225600 2.213600
C -3.479200 2.353800 0.011200
C -2.825000 2.848100 -1.113000
H -4.555300 2.287400 0.045800
C -1.435500 2.932900 -1.110700
C -0.701300 2.499400 -0.011500
H -0.920600 3.317000 -1.975600
C -1.368500 1.952600 1.082700
C 0.756900 2.565400 -0.022900
H -0.799600 1.579300 1.924000
C -3.591500 3.134300 -2.315300
H 1.259200 2.037400 0.793600
H -4.685200 3.061100 -2.210300
C -5.455200 0.501000 3.276300
C -6.389500 -0.393200 2.402800
N -4.698000 1.261100 2.319300
N -5.581600 -1.085500 1.451800
C 7.796900 -4.785600 -3.865700
C 6.310600 -4.734700 -4.329700
N 8.389000 -3.461500 -3.792000
N 5.575800 -3.837300 -3.504800
C -1.454300 -5.713500 0.137900
C -0.315700 -5.444100 1.162400
N -2.200200 -4.525800 -0.098200
N 0.721000 -4.786400 0.418900
C -3.644000 1.982800 -5.314500
C -3.850200 3.355600 -4.602500
N -3.889800 1.008100 -4.285900
N -3.041300 3.359600 -3.428500
C 3.626900 2.416600 -0.099200
C 2.776400 3.299200 -1.063000
N 3.235000 1.050000 -0.155800
N 1.356700 3.187100 -0.938600
H 8.372800 -3.017800 -4.704300
H 7.841700 -2.884800 -3.161900
H -2.782000 0.678900 2.896600
C 8.600200 -5.619200 -4.864600
C 7.875000 -5.414900 -2.473300
C -4.652600 -0.391700 4.226800
C -6.310900 1.492000 4.071900
H -7.136900 0.255900 1.921300
H -6.886600 -1.122000 3.045400
H 4.684200 2.565800 -0.371100
H 3.469400 2.766600 0.925600
C 3.101600 2.941800 -2.519100
C 3.128900 4.771500 -0.807700
H -0.996500 -6.122900 -0.776600
H -2.138800 -6.447700 0.569800
H -4.921300 3.473500 -4.374900
H -3.520600 4.155100 -5.268700
C -4.729100 1.802800 -6.381400
C -2.254700 1.954400 -5.957300
C 0.276900 -6.787100 1.605600
C -0.865200 -4.684300 2.373300
H -4.113000 -1.148100 3.662100
H -5.332900 -0.890000 4.912400
H -3.950400 0.199600 4.812000
H -6.815800 2.174800 3.393800
H -5.677500 2.074100 4.737700
H -7.052600 0.961700 4.663700
H -2.067300 0.992700 -6.431600
H -1.493300 2.145400 -5.205000
H -2.194000 2.727300 -6.718900
H -4.714200 2.635700 -7.079600
H -5.707300 1.747500 -5.911200
H -4.557900 0.878800 -6.929300
H -0.049300 -4.401200 3.036200
H -1.555000 -5.323700 2.916800
H -1.405200 -3.795200 2.058900
H -0.479600 -7.400300 2.087600
H 1.090100 -6.613600 2.306300
H 0.673200 -7.318800 0.744900
H 2.546200 5.401800 -1.473600
H 4.187000 4.945500 -0.985800
H 2.893200 5.043900 0.218800
H 2.881600 1.892700 -2.706100
H 4.150300 3.131600 -2.735100
H 2.485400 3.544000 -3.180400
H 7.514600 -6.440300 -2.494600
H 7.272500 -4.846100 -1.768200
H 8.906100 -5.407300 -2.132100
H 8.545500 -5.182900 -5.860000
H 8.220800 -6.636600 -4.909900
H 9.641700 -5.642700 -4.556500
H 5.888200 -5.753600 -4.337800
H 6.285800 -4.333100 -5.349000
