177

C -3.232900 -1.770000 -0.559000
C -3.365000 -1.381500 0.836200
C -2.459300 -2.864400 -0.941700
C -2.282300 -3.170300 -2.286600
H -2.002800 -3.467400 -0.171600
C -2.836900 -2.336300 -3.258400
C -3.606000 -1.238700 -2.891700
H -2.658200 -2.569500 -4.297000
C -3.826500 -0.984000 -1.539200
C -4.110000 -0.307400 -3.892200
H -4.442400 -0.139000 -1.274800
C -1.524000 -4.352900 -2.667400
H -3.650600 -0.385300 -4.890200
H -4.063100 -0.552700 1.028600
H -1.075400 -4.918100 -1.836200
C 2.860400 -2.878300 -0.069300
C 2.940400 -3.546200 1.223100
C 3.409000 -1.605900 -0.231200
C 3.364400 -0.963200 -1.461900
H 3.886400 -1.140800 0.618400
C 2.732300 -1.589900 -2.535400
C 2.183600 -2.858800 -2.390700
H 2.697500 -1.073500 -3.482400
C 2.256800 -3.501600 -1.154900
C 1.563200 -3.518600 -3.531800
H 1.835900 -4.491500 -1.064500
C 3.998400 0.337700 -1.620700
H 1.321000 -2.869100 -4.387300
H 2.491900 -4.551200 1.281000
H 4.332400 0.821200 -0.689500
C -0.739200 1.364400 -0.006400
C -0.615300 0.583600 1.219300
C -2.004000 1.724200 -0.470200
C -2.165100 2.322900 -1.714200
H -2.856800 1.490900 0.147400
C -1.036900 2.611500 -2.479600
C 0.235500 2.327800 -1.997700
H -1.174900 3.069500 -3.447300
C 0.378600 1.683200 -0.769200
C 1.403000 2.687800 -2.791900
H 1.372800 1.433000 -0.431000
C -3.504700 2.562900 -2.228600
H 1.215500 2.855400 -3.864900
H -4.322600 2.395200 -1.512000
C -1.479300 -0.405900 3.158600
C -2.736600 -1.317000 3.065600
N -1.567000 0.482500 2.038200
H -0.583400 -1.042500 3.083600
C -1.388600 0.398000 4.471400
N -2.683700 -1.905800 1.758700
H -3.617900 -0.659700 3.161000
C -2.818200 -2.421900 4.131000
H -1.465700 -0.310000 5.302300
C -2.502700 1.434200 4.590400
C -0.020000 1.073500 4.554300
H -2.847000 -1.948600 5.117600
C -1.625500 -3.370000 4.063200
C -4.121500 -3.197400 3.935300
H 0.099300 1.786400 3.740800
H 0.776700 0.334100 4.493600
H 0.075400 1.608900 5.496300
H -3.476400 0.958200 4.672500
H -2.502300 2.078600 3.715300
H -2.348300 2.044600 5.477500
H -4.229900 -3.958500 4.704800
H -4.122300 -3.682100 2.961600
H -4.979600 -2.530300 3.988600
H -1.791900 -4.227100 4.712500
H -0.717600 -2.869700 4.386500
H -1.496800 -3.720100 3.042500
C 2.928100 -2.722600 4.552600
C 3.591800 -3.642100 3.475600
N 2.093000 -1.684700 3.960400
H 3.712500 -2.201600 5.111600
C 2.073400 -3.525800 5.549400
N 3.498900 -2.991300 2.206400
H 3.055100 -4.609800 3.457900
C 5.085700 -3.912600 3.768900
H 1.282600 -4.030500 4.981200
C 1.421100 -2.575400 6.553200
C 2.878700 -4.580900 6.303300
H 5.177700 -4.155400 4.831400
C 5.947000 -2.688200 3.468200
C 5.572400 -5.108100 2.952200
H 3.701200 -4.116200 6.843000
H 3.282700 -5.336200 5.634600
H 2.238100 -5.080700 7.027000
H 2.180900 -2.121300 7.185000
H 0.722100 -3.117100 7.186300
H 0.890700 -1.782500 6.035500
H 6.623600 -5.300500 3.154300
H 5.458400 -4.911000 1.887600
H 5.006800 -6.004400 3.200400
H 6.977600 -2.878400 3.759500
H 5.591200 -1.816700 4.011200
H 5.919100 -2.464000 2.405100
C -0.648400 -5.886300 -4.190200
C 0.734700 -5.377300 -4.677200
N -1.416000 -4.720500 -3.868300
H -0.466600 -6.500800 -3.291500
C -1.426600 -6.719500 -5.224300
N 1.349700 -4.760100 -3.542400
H 0.558000 -4.643200 -5.483400
C 1.666000 -6.485600 -5.207000
H -0.833100 -7.604700 -5.472500
C -1.710200 -5.925700 -6.495900
C -2.738800 -7.188000 -4.594700
H 1.170400 -6.970500 -6.053400
C 1.978400 -7.528200 -4.137800
C 2.960700 -5.851900 -5.716800
H -2.549700 -7.757100 -3.686600
H -3.287300 -7.820600 -5.288900
H -3.357000 -6.329800 -4.341100
H -2.192400 -4.987400 -6.237500
H -2.369300 -6.492000 -7.150400
H -0.793600 -5.711100 -7.039200
H 3.495500 -5.376900 -4.897300
H 2.750600 -5.099100 -6.474100
H 3.603600 -6.610900 -6.156800
H 2.362900 -7.035500 -3.249200
H 2.727900 -8.225500 -4.505800
H 1.090500 -8.094300 -3.868800
C -5.343800 1.556900 -4.575400
C -5.079100 2.929400 -3.892600
N -4.975900 0.563600 -3.612000
H -4.704300 1.488800 -5.472000
C -6.811100 1.353700 -5.005200
N -3.722500 2.887200 -3.427900
H -5.777300 3.004700 -3.042000
C -5.273000 4.146300 -4.812300
H -7.085700 2.183200 -5.664400
C -7.763900 1.320700 -3.813400
C -6.926900 0.054700 -5.803100
H -6.306400 4.144800 -5.173900
C -4.320600 4.122600 -6.004500
C -5.054800 5.418600 -3.992800
H -6.672200 -0.797400 -5.176300
H -6.257200 0.065900 -6.660900
H -7.944200 -0.075200 -6.165200
H -8.762700 1.044700 -4.144500
H -7.825400 2.292300 -3.330500
H -7.419000 0.589200 -3.087600
H -5.227100 6.300300 -4.605700
H -4.034100 5.446900 -3.618400
H -5.734400 5.452200 -3.143500
H -4.585000 3.334800 -6.705200
H -3.305900 3.956100 -5.654600
H -4.360800 5.072400 -6.533300
C 4.789100 2.151600 -2.840900
C 3.659700 3.185400 -3.094400
N 4.181700 0.857900 -2.753200
H 5.271600 2.420100 -1.885300
C 5.855000 2.142100 -3.953100
N 2.543600 2.820000 -2.276800
H 3.391400 3.153100 -4.164600
C 4.095000 4.626900 -2.746800
H 6.141100 3.178500 -4.162700
C 5.336900 1.500300 -5.237400
C 7.089300 1.388600 -3.458800
H 5.089600 4.789300 -3.175700
C 4.161000 4.860800 -1.239700
C 3.126000 5.621200 -3.384400
H 7.500400 1.859700 -2.568100
H 7.859700 1.375800 -4.226300
H 6.824500 0.361500 -3.216300
H 5.010000 0.485100 -5.032900
H 6.126400 1.476000 -5.985200
H 4.498000 2.056500 -5.646800
H 3.105000 5.504200 -4.466200
H 3.428000 6.640900 -3.156500
H 2.120100 5.466800 -2.998400
H 4.884500 4.201000 -0.769000
H 3.188000 4.676200 -0.792300
H 4.455400 5.888200 -1.037000
H 1.367600 -2.121200 3.396600
H 2.660400 -1.130600 3.326600
H 0.341000 0.052200 1.350000
