102

C -2.903900 -2.208900 -0.451700
C -2.409200 -2.185800 0.923200
C -2.470800 -3.181500 -1.343000
C -2.903800 -3.175600 -2.670600
H -1.800000 -3.965400 -1.027200
C -3.728400 -2.149300 -3.116500
C -4.154800 -1.154200 -2.237800
H -4.042400 -2.094700 -4.147900
C -3.769500 -1.214000 -0.903500
C -4.923600 -0.010600 -2.704800
H -4.102800 -0.471500 -0.196400
C -2.446700 -4.206700 -3.592000
H -5.348700 0.627400 -1.915900
H -1.521700 -2.804900 1.102300
H -2.889300 -4.189800 -4.599500
C 2.124100 -2.574900 0.329100
C 2.078100 -2.668100 1.794000
C 2.701200 -1.474600 -0.296800
C 2.718400 -1.388200 -1.687800
H 3.136900 -0.671700 0.277900
C 2.158400 -2.416200 -2.438500
C 1.594700 -3.535000 -1.825800
H 2.150600 -2.375600 -3.517300
C 1.575100 -3.603600 -0.438900
C 0.983000 -4.588000 -2.630100
H 1.136400 -4.450000 0.070300
C 3.294700 -0.232900 -2.370200
H 0.513200 -5.397400 -2.063900
H 2.544600 -1.807500 2.312400
H 3.047600 -0.170100 -3.435900
C -1.738100 1.839700 0.254400
C -2.461600 1.344500 1.415000
C -2.419300 2.088100 -0.930400
C -1.730300 2.422400 -2.095600
H -3.492400 1.996800 -0.985800
C -0.347900 2.562800 -2.051600
C 0.346500 2.362600 -0.857300
H 0.214100 2.829800 -2.933800
C -0.352000 1.980800 0.282600
C 1.790500 2.517500 -0.783300
H 0.163600 1.782100 1.209800
C -2.454400 2.537800 -3.358400
H 2.234200 2.290600 0.198500
H -1.817400 2.573300 -4.250800
C -2.631600 0.210600 3.423400
C -2.509100 -1.318300 3.150000
N -1.866000 0.889700 2.430700
N -2.973000 -1.476200 1.797000
O 1.586900 -3.576000 2.415700
C -1.022400 -5.997700 -4.133600
C 0.309400 -5.444200 -4.741200
N -1.582200 -5.050300 -3.229800
N 0.990700 -4.507800 -3.888200
C -5.645900 1.517000 -4.281500
C -4.516600 2.549500 -4.572000
N -5.044700 0.270800 -3.929500
N -3.713300 2.550800 -3.379200
C 4.573700 1.776800 -2.360300
C 3.911500 2.959800 -1.601600
N 4.018100 0.595300 -1.757300
N 2.494400 2.895100 -1.760200
H -3.558200 1.339900 1.328800
H -1.692700 -6.248000 -4.968800
H -0.812500 -6.905200 -3.560100
H 4.262800 3.896100 -2.041400
H 4.215300 2.907600 -0.544400
H -2.217200 0.435300 4.407900
H -3.697400 0.483200 3.390900
C 4.347400 1.950400 -3.864600
H 4.738500 1.095900 -4.413900
H 4.866200 2.843100 -4.203500
H 3.287300 2.067400 -4.075000
C 6.074200 1.762800 -2.047700
H 6.525900 2.715500 -2.311600
H 6.560300 0.971900 -2.614400
H 6.231100 1.573600 -0.989300
C -0.000600 -4.668200 -6.027000
H -0.697200 -3.860700 -5.813600
H -0.428600 -5.323000 -6.781900
H 0.916800 -4.231700 -6.412300
C 1.251000 -6.612700 -5.054500
H 0.765600 -7.314900 -5.727900
H 1.527300 -7.131700 -4.139000
H 2.156500 -6.237800 -5.525400
C -1.070500 -1.762800 3.421600
H -0.945300 -2.831600 3.264900
H -0.810000 -1.540400 4.452800
H -0.389900 -1.223600 2.766200
C -3.484200 -2.071500 4.061300
H -4.508200 -1.791900 3.827000
H -3.279800 -1.839300 5.103200
H -3.374700 -3.143000 3.909600
C -5.139800 3.943600 -4.709200
H -5.605900 4.238800 -3.772700
H -5.889000 3.944600 -5.496600
H -4.367800 4.670200 -4.953600
H -6.275000 1.917700 -3.472100
H -6.244800 1.376800 -5.183500
C -3.793200 2.162300 -5.864900
H -3.341100 1.179400 -5.753700
H -3.024300 2.890500 -6.115100
H -4.507200 2.127900 -6.683300
