216
Coordinates from ORCA-job _o_4_alde1_6_ami1_1_opt_B97-3c
  C   -0.99085797664827     -0.93156272415142      4.03960352276017
  C   -2.03238090243556     -1.95608732984948      4.11369449995967
  C   -1.31278420996102      0.42991198400678      4.02210362519956
  C   -0.31635713379377      1.39473123810147      4.01618768121286
  H   -2.35635677165708      0.71525412114508      4.03381203034719
  C   1.02371857969519      0.99266613146257      4.00602809115347
  C   1.36099514908603     -0.35266108162741      4.02365708182188
  H   1.79266859649358      1.75381427345896      4.00464855847417
  C   0.34284323814383     -1.31233712720848      4.02950661610362
  C   2.77012459454070     -0.74113312197386      4.08117275587934
  H   0.61759796431184     -2.35869439821297      4.04643035793757
  C   -0.68377243218726      2.80977263051671      4.06605610796751
  H   3.49444123680068      0.06842789801585      3.91394897640428
  H   -1.69414694745656     -2.99104779716481      3.96391570167805
  H   -1.74960269936085      3.03058174637842      3.91359899521116
  C   -3.86547546092524     -1.79602730467289     -0.03083718788303
  C   -4.50512099624891     -1.71459772747201      1.28223500736757
  C   -3.08508766499493     -2.90021612841609     -0.39050260006057
  C   -2.53565299264924     -2.99730706206772     -1.66034729314482
  H   -2.93571158728114     -3.68739061795063      0.33658797778912
  C   -2.75136961149536     -1.96419695067258     -2.57889111070577
  C   -3.52245559541890     -0.86237532735932     -2.23938727268005
  H   -2.32062280497562     -2.05210248031847     -3.56749893619746
  C   -4.06925468530653     -0.78110574389156     -0.95407955817098
  C   -3.78561963712696      0.16900062000547     -3.24282409410568
  H   -4.67182201601940      0.08126307296723     -0.70135588348833
  C   -1.78101825783036     -4.19495112509388     -2.02917207409192
  H   -3.18963110799612      0.10041156665371     -4.16374789534851
  H   -4.96317152557218     -0.74659610447697      1.52957808946078
  H   -1.53133982802741     -4.87416346008256     -1.20194247745057
  C   3.48745154635340     -2.45069051957510     -0.05711694076545
  C   3.75686061047249     -3.03174061222609      1.25810118326279
  C   4.04720975057302     -1.22624605676708     -0.43791369929352
  C   3.83718520472531     -0.71504008844416     -1.71008024560052
  H   4.66467471479302     -0.69534860714103      0.27448809980465
  C   3.03741494547771     -1.42841956076007     -2.60956797258985
  C   2.47462246996380     -2.64378666051203     -2.24892206913767
  H   2.88322242732523     -1.02188149697116     -3.60031620166524
  C   2.69698347714122     -3.14437463659501     -0.96144367134096
  C   1.69877753282985     -3.39875766443715     -3.23279983845541
  H   2.25566270254115     -4.09479779263284     -0.69214206485104
  C   4.49069198460129      0.53393882310087     -2.10105311115958
  H   1.44809450562408     -2.85949663005512     -4.15711251351511
  H   3.15195893577169     -3.91016249243067      1.52361317938589
  H   4.96507721361862      1.09838228802039     -1.28597162237773
  C   0.37556052903460      4.24698906731420     -0.10575680807337
  C   0.76285743890881      4.78321624904865      1.19897850741317
  C   -0.96995958096394      4.11595843058958     -0.46633465672757
  C   -1.32550366765657      3.66614472952256     -1.72932882090813
  H   -1.72835140768297      4.39212767767832      0.25422481707101
  C   -0.32051527375700      3.32126035396298     -2.63963498849239
  C   1.01834052263146      3.44502604067229     -2.29909271383151
  H   -0.60936470063095      2.97452884101202     -3.62297709167359
  C   1.35877704479067      3.90072731602357     -1.02078544455437
  C   2.04569744964644      3.13987865913406     -3.29474902492697
  H   2.40621183260805      3.99649597003897     -0.76713596503773
  C   -2.73920064960028      3.60326268552897     -2.10009241121699
  H   1.69037007989047      2.64290123287091     -4.20840010797124
  H   1.83023953422077      4.70339616872049      1.44865591738720
  H   -3.45416299032035      3.74062177483019     -1.27670283605016
  C   -4.19990808681983     -2.76348063618473      4.45278319971356
  C   -5.24359096952298     -2.53646190019604      3.34233129161935
  N   -3.24438470491397     -1.68105504478713      4.36590308060553
  H   -3.71695478268935     -3.72872661430541      4.24972033982950
  C   -4.77817238993894     -2.82468961346797      5.87836577248806
  N   -4.56107730484347     -2.70084006184412      2.07752152106611
  H   -5.61698477719199     -1.50970810417967      3.45448643662443
  C   -6.45847240750242     -3.48044205557929      3.39700953115862
  H   -5.48602960372107     -3.65584605366305      5.88688935370895
  C   -5.51839139324984     -1.56022486999057      6.28957545429425
  C   -3.67685870354501     -3.16021716803839      6.87571795103340
  H   -6.93393060248423     -3.31276693969121      4.36536975287116
  C   -6.09003702738301     -4.95316634760450      3.29219708579171
  C   -7.46977182465813     -3.09401077465296      2.32551353230292
  H   -2.95609397942265     -2.34814615152652      6.95421889914389
  H   -3.13300468596182     -4.05917070663014      6.58315622536436
  H   -4.09334518638835     -3.33274761346107      7.86730938325024
  H   -5.89624751368603     -1.65539050614457      7.30723215354191
  H   -6.37003365987738     -1.35209778634859      5.64428666037039
  H   -4.85632031406466     -0.69822968718254      6.25359001465166
  H   -7.07665557627029     -3.28081563694838      1.32768044058073
  H   -7.73205368886824     -2.03709371499134      2.38606944108946
  H   -8.38767629074147     -3.67014059836171      2.43510972442252
  H   -6.98610184077506     -5.57228112827049      3.32741084198131
  H   -5.44004616299068     -5.27489139454769      4.10399642189544
  H   -5.57581284492616     -5.15501430731677      2.35544655329118
  C   4.55939611693758     -2.20944790161371      4.40817385068137
  C   4.86941961781944     -3.23805151523491      3.30381510222784
  N   3.14267616833759     -1.92563659837744      4.33887459060077
  H   5.14955993355494     -1.31000377190927      4.18704091749837
  C   4.92305128419017     -2.66427955050782      5.83333401344991
  N   4.65055067856444     -2.57836465612866      2.03525137800850
  H   4.16991048941633     -4.07438148586108      3.43576725451809
  C   6.29590912328774     -3.81581194049401      3.34274205430564
  H   5.99679016498459     -2.86166786502944      5.82757182628192
  C   4.20456241698761     -3.93294345005735      6.26949302698058
  C   4.67807439523350     -1.53208516647463      6.82242770540988
  H   6.40496270041178     -4.29860904879791      4.31582436510212
  C   7.38388515819651     -2.76052507671913      3.20623030463647
  C   6.45082954998932     -4.89819877769642      2.28225671571971
  H   5.04960273115157     -1.79644687744633      7.81165815186482
  H   3.61578671376535     -1.31224801185282      6.91371421457385
  H   5.18112634878310     -0.61513318593855      6.51315111250313
  H   4.49351990544128     -4.20295533068193      7.28491557494177
  H   4.43791800966668     -4.78124336830883      5.62838128612152
  H   3.12664154559327     -3.78997318340362      6.25115094991320
  H   6.39905404881601     -4.47700371722724      1.27974205501849
  H   5.66887316827423     -5.65394374766623      2.36526930037656
  H   7.41113729655746     -5.40245803417900      2.38234603621730
  H   8.36915759580046     -3.22521043357838      3.23372207663213
  H   7.34850102702194     -2.02464830333861      4.00761987284611
  H   7.28678258457915     -2.22828190053223      2.26285490741748
  C   -0.30185362630782      5.09658233834282      4.36438354700429
  C   0.41573089632801      5.86805146221295      3.24028730628484
  N   0.15965238777032      3.72706720476577      4.30141337825584
  H   -1.37933438807090      5.15582853757213      4.16006594556953
  C   -0.06678585349043      5.65334909289951      5.78045031537190
  N   -0.06561500095713      5.33536187562120      1.98447324976181
  H   1.49189242928946      5.68243780722614      3.35692947608882
  C   0.20254475920269      7.39263262434523      3.26638624711674
  H   -0.43211899359806      6.68209702168484      5.77015252975838
  C   1.39789837970304      5.66853024567423      6.19307991518369
  C   -0.90940007878674      4.88594357421030      6.79105088851496
  H   0.58248883864060      7.73915258580188      4.22941953418846
  C   -1.25762993084701      7.80521897660062      3.15072904187235
  C   1.04388109403068      8.05719651233845      2.18437584102294
  H   -1.95998695352744      4.86157396077576      6.49919545239041
  H   -0.84948377653631      5.34949957657486      7.77493090413481
  H   -0.56839539748440      3.85654402003741      6.88686943252564
  H   2.00617298372677      6.28642939803445      5.53487657180623
  H   1.81145778414118      4.66281120913252      6.17967219613707
  H   1.50387980130163      6.06529514415135      7.20244425133458
  H   1.00122073209810      9.14194095757667      2.27385951033133
  H   0.68835694233577      7.79111505690223      1.19044302746052
  H   2.09088837432091      7.75951595851498      2.25283937934132
  H   -1.68649222699203      7.44476933281256      2.21863095068862
  H   -1.34790996886353      8.89104856670957      3.16800048338831
  H   -1.86278424477277      7.41531889437597      3.96728212901799
  C   -0.74156593326398     -5.68316971881519     -3.50205001499125
  C   0.62252682060535     -5.28534338380634     -4.09759739548180
  N   -1.45914521586580     -4.45763586226543     -3.22732476204439
  H   -0.54017365864158     -6.23485334642984     -2.57405177785559
  C   -1.59957680527216     -6.58934354424097     -4.40366496239922
  N   1.36042865437708     -4.60780517787381     -3.05412368866443
  H   0.42325683433323     -4.60792431216636     -4.93877263820258
  C   1.45822068274597     -6.46059975569578     -4.63670066451493
  H   -1.01280941091659     -7.49341504247109     -4.57740003146121
  C   -1.93286513254799     -5.96676145130277     -5.75162214810746
  C   -2.86657516543732     -7.00857775886214     -3.66939506131438
  H   0.85746505110083     -6.93186739452964     -5.41696838153172
  C   1.78423820291795     -7.50939320954015     -3.58337960227040
  C   2.72775055087679     -5.93959859945506     -5.29779540355370
  H   -3.52467583244140     -6.15757532472205     -3.50254268440581
  H   -2.63862110804656     -7.44720256832992     -2.69720782140736
  H   -3.41971468608353     -7.74918951104643     -4.24559646842873
  H   -2.48502273570707     -5.03910333135209     -5.62031600120412
  H   -2.54689406537492     -6.64625409843470     -6.34214932455599
  H   -1.04172508242067     -5.74288877073309     -6.33535147377591
  H   3.26411573027328     -6.74735695963809     -5.79408458372609
  H   3.39897274944254     -5.49529838765034     -4.56489030520363
  H   2.50510893546827     -5.17937965705240     -6.04745030680686
  H   2.38324264837299     -8.30969251967266     -4.01715859739704
  H   0.88930788937638     -7.96432967541623     -3.16244219132431
  H   2.34907526929656     -7.06937369691140     -2.76483876321669
  C   -4.87878011121746      2.02750776468623     -4.14580546288084
  C   -4.54447274997341      3.41849557694255     -3.57391083950518
  N   -4.66493447947580      1.06886460226288     -3.08385936938824
  H   -4.18840276097751      1.84679519382352     -4.98059157390449
  C   -6.31186019396594      1.88102441620614     -4.68896788027151
  N   -3.12498478043581      3.43388345247546     -3.29619803269730
  H   -5.12541223121243      3.53555553788437     -2.64925197218102
  C   -4.89946809636360      4.59780871108440     -4.49765344623384
  H   -6.41593190457373      2.62296118510210     -5.48307931314815
  C   -7.38806417687118      2.14138437811254     -3.64500923457831
  C   -6.49195441109602      0.50946911197520     -5.32660335397665
  H   -5.97534111648630      4.53747131808490     -4.67281586855492
  C   -4.19082215219824      4.55123314931724     -5.84362115288995
  C   -4.63172989150575      5.91813927291708     -3.78685517510901
  H   -5.71860275861837      0.30904327300729     -6.06906562515302
  H   -7.45726251192729      0.43982448213015     -5.82641559390148
  H   -6.44629837094755     -0.28096374178283     -4.57944296045103
  H   -7.33663050706183      3.15113646369938     -3.24157114812891
  H   -7.29317030761321      1.44691535200569     -2.81350940046216
  H   -8.37864384538943      2.01496270981631     -4.08115976980636
  H   -4.99644118855068      6.75638064522084     -4.37915510773308
  H   -3.56610937954669      6.06661717426660     -3.62092486830859
  H   -5.12719552006649      5.95736551558495     -2.81603236166942
  H   -3.11166029853326      4.57099579106086     -5.71064597300672
  H   -4.47347491922460      5.41040519196458     -6.45138780319731
  H   -4.43904604290735      3.65567342403693     -6.41057799881820
  C   5.23917108248600      2.16344706491844     -3.60062188734013
  C   4.20432086993576      3.14001464613915     -4.19174485058962
  N   4.54066251413673      0.93191858637721     -3.30411019300169
  H   5.62945296346499      2.62249129922376     -2.68237809000472
  C   6.44025492844457      1.86492077782798     -4.51630620786688
  N   3.26449956879138      3.45300275219581     -3.13760082657448
  H   3.70471071369094      2.61870712836684     -5.01930279409842
  C   4.79710965586134      4.44433756548428     -4.75523868887898
  H   6.92877105752974      2.82317433679172     -4.70334778599113
  C   6.04878362009322      1.25651028445821     -5.85503971564352
  C   7.44525452724676      0.98081611326965     -3.78935117098731
  H   5.49265520640048      4.14989222398233     -5.54349833405662
  C   5.56014024088785      5.26173608512443     -3.72303713590987
  C   3.70218934153971      5.27787570933696     -5.40835374169557
  H   7.03852983271990     -0.01321630688668     -3.61172074049074
  H   7.72337126036708      1.40286924733072     -2.82290631961892
  H   8.35586745900571      0.86797617137489     -4.37632337664317
  H   5.52409845156772      0.31493989555566     -5.71060043224147
  H   6.93574034013355      1.06146775364964     -6.45731617285449
  H   5.40048614527861      1.91268420266799     -6.43312021358916
  H   2.99399431263255      5.64649149663100     -4.66829175819287
  H   3.14236595761985      4.69796441779740     -6.14306345216804
  H   4.12731201920185      6.14000346342949     -5.92069695490964
  H   6.40551945461813      4.71644521840016     -3.30712239118570
  H   4.90926970074752      5.54371753504929     -2.89869191200743
  H   5.95072750698884      6.17362251516020     -4.17402156108517
