108

C -0.969900 -0.996600 4.153400
C -1.985400 -2.040100 4.175400
C -1.336100 0.349500 4.152000
C -0.368200 1.347000 4.153700
H -2.387500 0.593500 4.160300
C 0.980700 0.991100 4.148500
C 1.360500 -0.345800 4.149900
H 1.717600 1.779700 4.154000
C 0.377900 -1.336000 4.148300
C 2.771900 -0.704100 4.168000
H 0.692300 -2.368500 4.153500
C -0.764000 2.748200 4.175800
H 3.478000 0.127700 4.020300
H -1.617800 -3.067500 4.028400
H -1.837800 2.943700 4.031500
C -3.969600 -1.847900 -0.111600
C -4.587500 -1.744900 1.203000
C -3.193500 -2.958000 -0.445500
C -2.621300 -3.068600 -1.707300
H -3.059200 -3.730000 0.296700
C -2.822700 -2.052000 -2.641200
C -3.593400 -0.940100 -2.322700
H -2.373800 -2.157600 -3.617000
C -4.161500 -0.842900 -1.052200
C -3.815200 0.103200 -3.314200
H -4.760200 0.025900 -0.824900
C -1.832700 -4.243700 -2.050900
H -3.216100 0.022900 -4.234400
H -5.058700 -0.777300 1.434800
H -1.601500 -4.924300 -1.216900
C 3.583600 -2.517100 -0.122700
C 3.806700 -3.105300 1.190600
C 4.155400 -1.289000 -0.455700
C 3.962200 -0.736100 -1.716100
H 4.758100 -0.787600 0.286100
C 3.180900 -1.417700 -2.649500
C 2.604900 -2.642000 -2.331900
H 3.045600 -0.974500 -3.624300
C 2.807600 -3.184700 -1.062800
C 1.810800 -3.354300 -3.323300
H 2.355600 -4.138300 -0.836200
C 4.584100 0.535400 -2.058700
H 1.579300 -2.793900 -4.242300
H 3.204800 -3.997400 1.423100
H 5.059800 1.074400 -1.224800
C 0.385000 4.363700 -0.114500
C 0.786300 4.849800 1.198300
C -0.965300 4.245600 -0.444600
C -1.350400 3.803100 -1.704600
H -1.699100 4.516300 0.299100
C -0.371600 3.468000 -2.640500
C 0.977500 3.580600 -2.325800
H -0.690000 3.130300 -3.614800
C 1.349000 4.026300 -1.057100
C 1.989000 3.249800 -3.319800
H 2.401300 4.111200 -0.832700
C -2.763100 3.706300 -2.044500
H 1.617000 2.770400 -4.238600
H 1.860500 4.774500 1.427700
H -3.466300 3.846800 -1.209000
C -4.166700 -2.833800 4.384300
C -5.214000 -2.568000 3.291500
N -3.202800 -1.781700 4.376800
N -4.602800 -2.713200 2.010300
H -5.652700 -1.568900 3.443800
H -5.997500 -3.327400 3.373400
H -3.716000 -3.826100 4.222200
H -4.670200 -2.815600 5.355600
C 4.549300 -2.198100 4.370500
C 4.838400 -3.237900 3.276400
N 3.156500 -1.888100 4.367000
N 4.655100 -2.635300 1.996100
H 4.192200 -4.117000 3.430400
H 5.887800 -3.537800 3.354900
H 5.183700 -1.312300 4.206900
H 4.787600 -2.644000 5.341000
C -0.359600 5.034300 4.381900
C 0.391500 5.807100 3.286200
N 0.069200 3.673300 4.374400
N -0.042800 5.348400 2.006700
H 1.476500 5.687900 3.436200
H 0.125500 6.865400 3.367300
H -1.444700 5.140200 4.222600
H -0.089300 5.462100 5.352100
C -0.685900 -5.636500 -3.526200
C 0.654400 -5.204900 -4.141900
N -1.463200 -4.476200 -3.233600
N 1.437100 -4.545500 -3.147500
H 0.462600 -4.571400 -5.022800
H 1.197400 -6.103700 -4.449500
H -0.494000 -6.256800 -2.636000
H -1.233200 -6.223800 -4.269700
C -4.841800 2.029600 -4.131100
C -4.545700 3.406400 -3.515800
N -4.659600 1.022400 -3.136900
N -3.151700 3.501000 -3.226100
H -5.177100 3.549600 -2.624300
H -4.783100 4.173900 -4.258800
H -4.198500 1.879600 -5.012900
H -5.892100 2.007800 -4.437100
C 5.213000 2.228000 -3.532100
C 4.167700 3.174000 -4.143900
N 4.597800 0.974000 -3.240600
N 3.207900 3.521100 -3.146600
H 3.712700 2.692400 -5.024200
H 4.674000 4.094000 -4.451600
H 5.656100 2.702700 -2.642000
H 5.993800 2.049200 -4.277600
