186
trans_l3_lb
Pd    7.685100    0.302400   -0.703400
Pd   -6.072100    0.098300   -0.165500
 C    3.619500   -2.793000    1.183700
 C    4.952500   -2.798200    1.584100
 N    5.953500   -3.217900    0.808800
 C    5.634000   -3.671200   -0.405500
 C    4.339500   -3.687300   -0.914400
 C    3.286400   -3.226700   -0.108400
 C    1.915700   -3.169900   -0.607600
 C    1.400500   -3.678400   -1.786300
 C    0.039000   -3.363300   -1.978800
 C   -0.494400   -2.625500   -0.938700
 S    0.698400   -2.317700    0.275900
 C   -1.850100   -2.124200   -0.779500
 C   -2.385800   -1.859000    0.491500
 C   -3.657600   -1.332700    0.599600
 N   -4.412400   -1.053700   -0.477700
 C   -3.940300   -1.346000   -1.699300
 C   -2.677500   -1.882700   -1.888800
 H    2.854000   -2.452200    1.884400
 H    5.216700   -2.438800    2.584500
 H    6.458800   -4.038400   -1.023600
 H    4.167400   -4.043400   -1.931000
 H    1.983800   -4.274800   -2.488000
 H   -0.543200   -3.692300   -2.840000
 H   -1.822400   -2.074700    1.401200
 H   -4.090700   -1.118500    1.578000
 H   -4.588200   -1.115300   -2.547100
 H   -2.330100   -2.068400   -2.905300
 C    3.461900    0.515400   -0.357500
 C    4.760100    0.080300   -0.552700
 N    5.776600    0.937900   -0.747100
 C    5.519500    2.260400   -0.789900
 C    4.250900    2.764300   -0.570600
 C    3.181800    1.890200   -0.311300
 C    1.860900    2.396800    0.036700
 C    1.556600    3.528000    0.771300
 C    0.170200    3.673300    1.018100
 C   -0.576800    2.675200    0.432900
 S    0.425700    1.530900   -0.383700
 C   -2.029100    2.459400    0.375500
 C   -2.668300    2.375900   -0.869600
 C   -3.975300    1.927500   -0.927400
 N   -4.653500    1.559700    0.175100
 C   -4.101400    1.764300    1.379300
 C   -2.798200    2.226100    1.521800
 H    2.680300   -0.225800   -0.183600
 H    5.003100   -0.981600   -0.529900
 H    6.358700    2.926600   -0.990400
 H    4.100000    3.843300   -0.606400
 H    2.316600    4.211500    1.152200
 H   -0.272800    4.499100    1.575300
 H   -2.132100    2.634000   -1.784200
 H   -4.484600    1.801700   -1.885400
 H   -4.701700    1.491500    2.249700
 H   -2.366200    2.317100    2.519000
 C    9.146200    3.617200    1.523800
 C    8.919500    2.672300    0.559100
 N    7.994300    1.688400    0.738000
 C    7.281900    1.631200    1.849700
 C    7.418400    2.574100    2.887400
 C    6.628000    2.505000    4.077400
 C    5.596200    1.452000    4.226800
 C    4.492900    1.391200    3.361800
 C    3.568800    0.359200    3.459600
 C    3.734000   -0.646600    4.428700
 C    2.857200   -1.765800    4.493500
 C    2.168000   -2.769200    4.533100
 C    1.425700   -3.990100    4.606800
 N    0.363300   -4.124600    3.804600
 C   -0.332600   -5.266100    3.867100
 C   -1.486700   -5.375300    3.025600
 C   -2.495400   -5.469500    2.350900
 C   -3.698300   -5.503900    1.588100
 C   -4.910400   -5.897600    2.181200
 C   -6.101000   -5.817400    1.467700
 C   -6.109300   -5.339200    0.152400
 C   -7.377100   -5.105800   -0.578200
 C   -8.209200   -6.130100   -0.980100
 C   -9.367500   -5.868600   -1.748800
 C   -9.694500   -4.589000   -2.136900
 C   -8.883900   -3.504800   -1.725500
 C   -9.139300   -2.155800   -2.078800
 C   -8.327000   -1.156500   -1.614100
 N   -7.283300   -1.413900   -0.771700
 C   -7.004300   -2.661100   -0.437300
 C   -7.740800   -3.764500   -0.914700
 C   -4.890500   -5.004500   -0.458500
 C   -3.697900   -5.087900    0.245100
 C    0.008500   -6.324600    4.726500
 C    1.115900   -6.176300    5.553000
 C    1.841200   -4.992700    5.501600
 C    4.819700   -0.565600    5.320200
 C    5.733400    0.474500    5.221100
 C    6.874000    3.422300    5.079000
 C    7.853500    4.430200    4.926200
 C    8.599800    4.530300    3.774500
 C    8.402000    3.596900    2.730200
 H    9.902700    4.385700    1.358300
 H    9.468700    2.660700   -0.384100
 H    6.567300    0.811500    1.941100
 H    4.357800    2.165200    2.602500
 H    2.716500    0.319700    2.778600
 H   -4.915800   -6.236400    3.218700
 H   -7.042700   -6.089700    1.949300
 H   -7.952200   -7.161200   -0.728500
 H   -9.996800   -6.706100   -2.057900
 H  -10.572500   -4.397500   -2.756800
 H   -9.981800   -1.906100   -2.725700
 H   -8.487700   -0.112600   -1.883900
 H   -6.167800   -2.819500    0.242700
 H   -4.882500   -4.660200   -1.495500
 H   -2.756500   -4.815600   -0.234400
 H   -0.592100   -7.234900    4.735700
 H    1.410100   -6.977300    6.234300
 H    2.714900   -4.831200    6.134100
 H    4.949100   -1.339300    6.078900
 H    6.586300    0.515000    5.902000
 H    6.286500    3.380100    5.998500
 H    8.008400    5.144600    5.737500
 H    9.348700    5.315700    3.656000
 C    8.198200   -3.255800   -2.904100
 C    8.314400   -2.182600   -2.060700
 N    7.405800   -1.165600   -2.069500
 C    6.405900   -1.182600   -2.928800
 C    6.186500   -2.248300   -3.824600
 C    5.042600   -2.270100   -4.683500
 C    4.137200   -1.097700   -4.646000
 C    2.884900   -1.180600   -4.026100
 C    2.153600   -0.030700   -3.752300
 C    2.669300    1.230400   -4.097700
 C    2.048500    2.430300   -3.654200
 C    1.613400    3.464700   -3.183500
 C    1.199900    4.668500   -2.534000
 N   -0.085300    4.777300   -2.183400
 C   -0.465900    5.876800   -1.522900
 C   -1.845700    5.948000   -1.146500
 C   -3.019100    5.962700   -0.827200
 C   -4.384500    5.863500   -0.431700
 C   -5.427500    6.175600   -1.319600
 C   -6.749700    5.930700   -0.962500
 C   -7.053000    5.364300    0.279800
 C   -8.410500    4.868600    0.609900
 C   -9.481800    5.679800    0.916100
 C  -10.717900    5.123100    1.324300
 C  -10.885100    3.762400    1.453300
 C   -9.816500    2.892800    1.129200
 C   -9.877100    1.481500    1.248600
 C   -8.803000    0.711500    0.888700
 N   -7.667300    1.257400    0.360000
 C   -7.570600    2.570600    0.257800
 C   -8.591400    3.451900    0.668400
 C   -6.014700    5.117800    1.190700
 C   -4.695400    5.367300    0.845900
 C    0.417400    6.915000   -1.187300
 C    1.749300    6.799000   -1.568400
 C    2.155400    5.663000   -2.256100
 C    3.883000    1.305800   -4.805100
 C    4.604800    0.153300   -5.074800
 C    4.825000   -3.391800   -5.454800
 C    5.732500   -4.477200   -5.430500
 C    6.854700   -4.457700   -4.632800
 C    7.100900   -3.341100   -3.799700
 H    8.936000   -4.058400   -2.858200
 H    9.126500   -2.104800   -1.334000
 H    5.723000   -0.335400   -2.914600
 H    2.507500   -2.149700   -3.697100
 H    1.203600   -0.100700   -3.218500
 H   -5.192200    6.574400   -2.307900
 H   -7.551500    6.129600   -1.676900
 H   -9.366300    6.764900    0.876000
 H  -11.544000    5.794800    1.567900
 H  -11.831000    3.343600    1.802400
 H  -10.776200    0.999800    1.636500
 H   -8.817700   -0.371900    1.000900
 H   -6.652100    2.968400   -0.169700
 H   -6.246100    4.686900    2.167800
 H   -3.890400    5.144200    1.548300
 H    0.053100    7.787200   -0.643200
 H    2.465300    7.587900   -1.329700
 H    3.190000    5.528900   -2.574900
 H    4.273100    2.281100   -5.100800
 H    5.569800    0.224800   -5.582000
 H    3.948300   -3.437100   -6.104100
 H    5.534800   -5.344400   -6.064100
 H    7.550200   -5.298900   -4.623100
