162

Pd 0.991400 5.692500 0.324300
Pd 0.373200 -4.885200 -0.113200
C 7.855400 2.290200 -0.138100
C 7.561000 3.461900 -0.087900
C 7.097200 4.790300 -0.022700
C 7.954600 5.874800 -0.034900
C 7.458200 7.182800 0.032800
C 6.111300 7.428000 0.113100
C 5.202100 6.348400 0.127900
C 3.806500 6.527900 0.208100
N 2.962300 5.519000 0.221000
C 3.424100 4.244700 0.156200
C 4.756300 3.962800 0.076300
C 5.693500 5.014700 0.059500
H 9.019800 5.711000 -0.097200
H 8.156800 8.005400 0.021000
H 5.739100 8.438800 0.164900
H 3.384800 7.528000 0.262200
H 2.673400 3.455900 0.171800
H 5.110600 2.946200 0.025200
C 8.166700 0.915000 -0.192300
C 9.493000 0.482600 -0.283100
C 9.774900 -0.871500 -0.332600
C 8.754700 -1.805000 -0.292000
C 7.424000 -1.380500 -0.201800
C 7.132100 -0.019700 -0.152900
H 10.291700 1.208300 -0.313800
H 10.800800 -1.201500 -0.402800
H 8.981500 -2.859500 -0.330300
H 6.107000 0.308300 -0.082400
C 6.392300 -2.341900 -0.158400
C 5.509200 -3.167000 -0.120500
C 4.592500 -4.235600 -0.076700
C 5.075300 -5.551600 -0.025800
C 4.174900 -6.599600 0.012900
C 2.818400 -6.320100 -0.002400
N 2.357900 -5.065300 -0.051100
C 3.207500 -4.040100 -0.086100
H 6.138800 -5.732200 -0.017400
H 4.517700 -7.620800 0.053100
H 2.080900 -7.120400 0.027600
H 2.773700 -3.044600 -0.124400
C 1.141800 2.378700 7.244500
C 1.207900 3.544500 6.930500
C 1.273900 4.864700 6.443900
C 1.398800 5.957000 7.282300
C 1.459800 7.256500 6.763400
C 1.397800 7.485600 5.412600
C 1.270600 6.397500 4.522400
C 1.202000 6.560300 3.124100
N 1.084300 5.543600 2.297800
C 1.023800 4.277200 2.781500
C 1.081400 4.011500 4.118100
C 1.207700 5.072200 5.036800
H 1.449600 5.805900 8.349900
H 1.557300 8.085600 7.447500
H 1.445300 8.490000 5.023100
H 1.246100 7.553500 2.685300
H 0.925900 3.481300 2.044700
H 1.032500 3.001100 4.489900
C 1.059600 1.010400 7.579200
C 1.110900 0.593500 8.912600
C 1.025900 -0.753900 9.217400
C 0.889000 -1.695700 8.213400
C 0.837500 -1.286800 6.875700
C 0.923800 0.067100 6.560700
H 1.216400 1.325800 9.698800
H 1.066000 -1.072000 10.248600
H 0.822500 -2.744700 8.458000
H 0.883200 0.383200 5.530300
C 0.694700 -2.256200 5.860800
C 0.571300 -3.088400 4.992200
C 0.417700 -4.162800 4.094200
C 0.237700 -5.458700 4.600000
C 0.091000 -6.512800 3.718100
C 0.128700 -6.259500 2.356900
N 0.300500 -5.023900 1.874500
C 0.441000 -3.992900 2.706000
H 0.215700 -5.619400 5.666500
H -0.049400 -7.518900 4.078700
H 0.016100 -7.065300 1.633500
H 0.576600 -3.013700 2.254800
C -6.224200 3.087700 0.530700
C -5.795500 4.217500 0.575800
C -5.179900 5.483600 0.618000
C -5.905200 6.656100 0.721200
C -5.259300 7.898400 0.759000
C -3.892500 7.990500 0.695000
C -3.115200 6.817100 0.589400
C -1.707600 6.838500 0.519900
N -0.986700 5.742500 0.422100
C -1.594200 4.529700 0.384400
C -2.950600 4.399500 0.445100
C -3.759000 5.548700 0.550300
H -6.982600 6.613100 0.773000
H -5.857400 8.793100 0.839900
H -3.404800 8.951900 0.724600
H -1.172100 7.783700 0.546200
H -0.940500 3.662600 0.302300
H -3.421300 3.430400 0.414400
C -6.693400 1.758200 0.473200
C -8.061500 1.476800 0.533200
C -8.498800 0.165100 0.472600
C -7.593700 -0.874000 0.352000
C -6.222200 -0.601100 0.291900
C -5.774000 0.716100 0.353600
H -8.770700 2.285400 0.626200
H -9.556500 -0.048200 0.519300
H -7.941500 -1.894600 0.304600
H -4.717400 0.927500 0.306400
C -5.308900 -1.669000 0.166000
C -4.527400 -2.585300 0.057000
C -3.741200 -3.746300 -0.077700
C -4.374100 -4.988400 -0.234200
C -3.601900 -6.127600 -0.362300
C -2.222100 -6.010500 -0.329800
N -1.618600 -4.826300 -0.180400
C -2.343000 -3.715300 -0.058000
H -5.451300 -5.042300 -0.253000
H -4.061300 -7.095000 -0.484500
H -1.582900 -6.886300 -0.428200
H -1.796200 -2.783700 0.059900
C 0.512500 2.997700 -6.845500
C 0.579500 4.133500 -6.436100
C 0.663300 5.407900 -5.842200
C 0.674900 6.572300 -6.587500
C 0.761100 7.823200 -5.963200
C 0.836700 7.931900 -4.598100
C 0.827500 6.767200 -3.800800
C 0.902100 6.805700 -2.393900
N 0.892600 5.717900 -1.654200
C 0.808400 4.497100 -2.240700
C 0.732300 4.350300 -3.594700
C 0.739800 5.490300 -4.422700
H 0.617000 6.516200 -7.664000
H 0.767500 8.711200 -6.576600
H 0.903100 8.899700 -4.127100
H 0.970700 7.757800 -1.874600
H 0.805300 3.637500 -1.572100
H 0.665800 3.375100 -4.048600
C 0.438100 1.661300 -7.292300
C 0.350800 1.364300 -8.655500
C 0.281400 0.045800 -9.070700
C 0.298600 -0.984800 -8.148100
C 0.385200 -0.696000 -6.781200
C 0.454000 0.628100 -6.355300
H 0.338300 2.166000 -9.378400
H 0.214000 -0.179600 -10.124700
H 0.244900 -2.010800 -8.478700
H 0.521800 0.851500 -5.302300
C 0.404700 -1.755600 -5.849900
C 0.422400 -2.664900 -5.053000
C 0.441200 -3.819900 -4.246900
C 0.470500 -5.082100 -4.858100
C 0.485100 -6.215000 -4.066200
C 0.467800 -6.071400 -2.688700
N 0.439600 -4.867900 -2.105800
C 0.427900 -3.762900 -2.849300
H 0.481200 -5.156300 -5.934200
H 0.508400 -7.197600 -4.508800
H 0.479300 -6.941400 -2.034300
H 0.405400 -2.814900 -2.318800
