
     RDKit          3D

  0  0  0  0  0  0  0  0  0  0999 V3000
M  V30 BEGIN CTAB
M  V30 COUNTS 72 72 0 0 0
M  V30 BEGIN ATOM
M  V30 1 C -1.4585 2.0720 -0.8399 0
M  V30 2 C -1.7970 1.7967 0.5647 0
M  V30 3 C -2.4601 2.1458 -1.8029 0
M  V30 4 C -2.1399 2.4063 -3.1336 0
M  V30 5 H -3.4969 2.0013 -1.5402 0
M  V30 6 C -0.8055 2.5944 -3.4872 0
M  V30 7 C 0.2074 2.5237 -2.5332 0
M  V30 8 H -0.5524 2.7981 -4.5193 0
M  V30 9 C -0.1283 2.2601 -1.2080 0
M  V30 10 C 1.5964 2.7255 -2.9220 0
M  V30 11 H 0.6487 2.2046 -0.4616 0
M  V30 12 C -3.1829 2.4802 -4.1470 0
M  V30 13 O -1.0063 1.7126 1.4679 0
M  V30 14 C -5.4173 2.4293 -4.8501 0
M  V30 15 C -6.3877 3.5705 -4.4163 0
M  V30 16 N -4.4008 2.3446 -3.8520 0
M  V30 17 H -5.0060 2.6668 -5.8470 0
M  V30 18 C -6.1135 1.0520 -4.9457 0
M  V30 19 N -7.0324 3.3050 -3.1457 0
M  V30 20 H -7.1690 3.6622 -5.1779 0
M  V30 21 C -5.6675 4.9308 -4.3150 0
M  V30 22 H -6.4467 0.7671 -3.9423 0
M  V30 23 C -5.1097 0.0021 -5.4225 0
M  V30 24 C -7.3113 1.0801 -5.8920 0
M  V30 25 H -4.9010 4.8471 -3.5363 0
M  V30 26 C -6.6733 6.0020 -3.8961 0
M  V30 27 C -5.0019 5.3449 -5.6256 0
M  V30 28 H -8.1194 1.6958 -5.5061 0
M  V30 29 H -7.6944 0.0708 -6.0271 0
M  V30 30 H -7.0160 1.4661 -6.8657 0
M  V30 31 H -5.5798 -0.9780 -5.4590 0
M  V30 32 H -4.2572 -0.0524 -4.7491 0
M  V30 33 H -4.7491 0.2469 -6.4201 0
M  V30 34 H -4.6479 6.3707 -5.5482 0
M  V30 35 H -5.7133 5.2904 -6.4475 0
M  V30 36 H -4.1473 4.7169 -5.8623 0
M  V30 37 H -6.1648 6.9435 -3.7025 0
M  V30 38 H -7.1978 5.6892 -2.9991 0
M  V30 39 H -7.4039 6.1589 -4.6865 0
M  V30 40 C 4.6508 1.4920 -2.1118 0
M  V30 41 C 3.8945 2.8095 -2.4690 0
M  V30 42 N 4.6223 1.1934 -0.6949 0
M  V30 43 H 5.6978 1.6098 -2.4106 0
M  V30 44 C 4.0791 0.2769 -2.8710 0
M  V30 45 N 2.5338 2.6245 -2.0864 0
M  V30 46 H 4.0038 3.0048 -3.5506 0
M  V30 47 C 4.4428 4.0404 -1.7107 0
M  V30 48 H 3.0377 0.1451 -2.5567 0
M  V30 49 C 4.8669 -0.9735 -2.4831 0
M  V30 50 C 4.1234 0.4538 -4.3873 0
M  V30 51 H 4.2579 3.8925 -0.6418 0
M  V30 52 C 3.6824 5.2921 -2.1491 0
M  V30 53 C 5.9376 4.2408 -1.9479 0
M  V30 54 H 3.4241 1.2127 -4.7277 0
M  V30 55 H 3.8586 -0.4828 -4.8732 0
M  V30 56 H 5.1250 0.7336 -4.7085 0
M  V30 57 H 4.8934 -1.0754 -1.4031 0
M  V30 58 H 5.8889 -0.9006 -2.8486 0
M  V30 59 H 4.4071 -1.8595 -2.9145 0
M  V30 60 H 6.2559 5.1805 -1.5015 0
M  V30 61 H 6.1504 4.2804 -3.0145 0
M  V30 62 H 6.5291 3.4433 -1.5061 0
M  V30 63 H 2.6165 5.1817 -1.9627 0
M  V30 64 H 3.8325 5.4757 -3.2117 0
M  V30 65 H 4.0376 6.1599 -1.5979 0
M  V30 66 H -2.8838 1.6664 0.7409 0
M  V30 67 H 3.6576 1.1619 -0.3820 0
M  V30 68 H 5.0987 1.9122 -0.1638 0
M  V30 69 H -7.6233 2.4845 -3.2056 0
M  V30 70 H -6.3189 3.1263 -2.4468 0
M  V30 71 H 1.7677 2.9720 -3.9824 0
M  V30 72 H -2.8380 2.6575 -5.1781 0
M  V30 END ATOM
M  V30 BEGIN BOND
M  V30 1 1 1 2
M  V30 2 2 2 13
M  V30 3 1 2 66
M  V30 4 1 3 5
M  V30 5 2 3 1
M  V30 6 1 4 3
M  V30 7 2 6 4
M  V30 8 1 6 7
M  V30 9 2 7 9
M  V30 10 1 8 6
M  V30 11 1 9 1
M  V30 12 1 9 11
M  V30 13 2 10 45
M  V30 14 1 10 7
M  V30 15 1 10 71
M  V30 16 1 12 4
M  V30 17 1 12 72
M  V30 18 1 14 17
M  V30 19 1 14 15
M  V30 20 1 14 16
M  V30 21 1 15 20
M  V30 22 1 15 19
M  V30 23 2 16 12
M  V30 24 1 18 23
M  V30 25 1 18 22
M  V30 26 1 18 14
M  V30 27 1 19 70
M  V30 28 1 21 26
M  V30 29 1 21 15
M  V30 30 1 23 31
M  V30 31 1 24 18
M  V30 32 1 25 21
M  V30 33 1 26 37
M  V30 34 1 26 38
M  V30 35 1 27 21
M  V30 36 1 27 36
M  V30 37 1 28 24
M  V30 38 1 29 24
M  V30 39 1 30 24
M  V30 40 1 32 23
M  V30 41 1 33 23
M  V30 42 1 34 27
M  V30 43 1 35 27
M  V30 44 1 39 26
M  V30 45 1 40 41
M  V30 46 1 40 43
M  V30 47 1 41 46
M  V30 48 1 41 47
M  V30 49 1 41 45
M  V30 50 1 42 68
M  V30 51 1 42 40
M  V30 52 1 44 40
M  V30 53 1 44 50
M  V30 54 1 47 52
M  V30 55 1 47 51
M  V30 56 1 48 44
M  V30 57 1 49 44
M  V30 58 1 49 58
M  V30 59 1 50 54
M  V30 60 1 50 56
M  V30 61 1 52 65
M  V30 62 1 52 63
M  V30 63 1 53 61
M  V30 64 1 53 47
M  V30 65 1 55 50
M  V30 66 1 57 49
M  V30 67 1 59 49
M  V30 68 1 60 53
M  V30 69 1 62 53
M  V30 70 1 64 52
M  V30 71 1 67 42
M  V30 72 1 69 19
M  V30 END BOND
M  V30 END CTAB
M  END

$$$$
