
     RDKit          3D

  0  0  0  0  0  0  0  0  0  0999 V3000
M  V30 BEGIN CTAB
M  V30 COUNTS 45 45 0 0 0
M  V30 BEGIN ATOM
M  V30 1 C -0.8720 -0.3450 -1.1043 0
M  V30 2 C -0.9763 -1.6702 -0.4649 0
M  V30 3 C -1.9469 0.5299 -1.1924 0
M  V30 4 C -1.8029 1.7806 -1.7969 0
M  V30 5 H -2.9240 0.2578 -0.8281 0
M  V30 6 C -0.5718 2.1486 -2.3227 0
M  V30 7 C 0.5137 1.2753 -2.2575 0
M  V30 8 H -0.4284 3.1084 -2.7946 0
M  V30 9 C 0.3530 0.0323 -1.6541 0
M  V30 10 C 1.8029 1.6540 -2.8188 0
M  V30 11 H 1.1917 -0.6484 -1.5975 0
M  V30 12 C -2.9389 2.6896 -1.8681 0
M  V30 13 C -3.7274 -1.4104 1.4381 0
M  V30 14 C -2.2088 -1.1167 1.4918 0
M  V30 15 N -4.0997 -2.7471 1.8404 0
M  V30 16 N -1.5185 -2.0151 0.6181 0
M  V30 17 H -1.8536 -1.3407 2.5044 0
M  V30 18 C -5.1426 3.3160 -1.3961 0
M  V30 19 C -6.3839 2.5511 -1.8665 0
M  V30 20 N -4.0378 2.4162 -1.3143 0
M  V30 21 N -6.8130 1.6450 -0.8170 0
M  V30 22 C 3.2595 3.1182 -3.9053 0
M  V30 23 C 3.7866 4.3718 -3.1965 0
M  V30 24 N 1.9813 2.7710 -3.3759 0
M  V30 25 H 4.0027 2.3103 -3.8133 0
M  V30 26 N 5.0715 4.7461 -3.7608 0
M  V30 27 H 4.9631 5.0123 -4.7343 0
M  V30 28 H 5.4557 5.5417 -3.2633 0
M  V30 29 H -3.8164 -2.9162 2.8003 0
M  V30 30 H -3.6127 -3.4219 1.2592 0
M  V30 31 H -7.5458 1.0294 -1.1527 0
M  V30 32 H -6.0246 1.0720 -0.5340 0
M  V30 33 H -0.4636 -2.4705 -0.9959 0
M  V30 34 H -2.7701 3.6266 -2.4218 0
M  V30 35 H 2.6045 0.9037 -2.7295 0
M  V30 36 H -2.0305 -0.0539 1.2782 0
M  V30 37 H 3.1215 3.3508 -4.9669 0
M  V30 38 H -4.9446 4.1735 -2.0608 0
M  V30 39 H -5.3425 3.6826 -0.3846 0
M  V30 40 H -6.1419 2.0453 -2.8178 0
M  V30 41 H -7.1936 3.2625 -2.0561 0
M  V30 42 H -4.0831 -1.2657 0.4139 0
M  V30 43 H -4.2426 -0.6965 2.0863 0
M  V30 44 H 3.0184 5.1587 -3.2671 0
M  V30 45 H 3.9381 4.1432 -2.1376 0
M  V30 END ATOM
M  V30 BEGIN BOND
M  V30 1 1 1 2
M  V30 2 2 2 16
M  V30 3 2 3 1
M  V30 4 1 4 3
M  V30 5 1 5 3
M  V30 6 2 6 4
M  V30 7 1 6 7
M  V30 8 2 7 9
M  V30 9 1 8 6
M  V30 10 1 9 1
M  V30 11 1 9 11
M  V30 12 1 10 7
M  V30 13 2 10 24
M  V30 14 1 12 4
M  V30 15 1 13 43
M  V30 16 1 13 42
M  V30 17 1 14 36
M  V30 18 1 14 13
M  V30 19 1 15 13
M  V30 20 1 15 29
M  V30 21 1 16 14
M  V30 22 1 17 14
M  V30 23 1 18 20
M  V30 24 1 18 19
M  V30 25 1 19 40
M  V30 26 1 19 21
M  V30 27 2 20 12
M  V30 28 1 21 31
M  V30 29 1 21 32
M  V30 30 1 22 24
M  V30 31 1 22 37
M  V30 32 1 22 25
M  V30 33 1 23 44
M  V30 34 1 23 22
M  V30 35 1 26 23
M  V30 36 1 27 26
M  V30 37 1 28 26
M  V30 38 1 30 15
M  V30 39 1 33 2
M  V30 40 1 34 12
M  V30 41 1 35 10
M  V30 42 1 38 18
M  V30 43 1 39 18
M  V30 44 1 41 19
M  V30 45 1 45 23
M  V30 END BOND
M  V30 END CTAB
M  END

$$$$
