36

C -1.208100 1.229700 -0.122800
C -1.055600 0.621100 1.203300
C -2.476600 1.498400 -0.633400
C -2.614600 2.080700 -1.883000
H -3.356000 1.248400 -0.057600
C -1.480800 2.388100 -2.624300
C -0.211100 2.128500 -2.125300
H -1.606200 2.843000 -3.595100
C -0.078200 1.550700 -0.874100
C 1.019100 2.506800 -2.909400
H 0.900400 1.327900 -0.476800
C -3.992300 2.325100 -2.445300
O -0.008100 0.386900 1.750500
C -5.587800 1.526400 -3.878100
C -4.969700 2.766500 -4.557000
N -4.583300 1.085000 -2.924200
H -5.845900 0.733500 -4.576900
N -3.971300 3.236800 -3.599300
H -5.720800 3.522900 -4.794100
C 3.346200 2.249300 -2.531200
C 2.962300 3.719600 -2.788400
N 2.096100 1.517600 -2.719700
H 3.675500 2.117600 -1.493400
N 1.547300 3.786700 -2.460400
H 3.073200 3.960900 -3.850400
H 2.138300 0.866400 -3.491500
H 0.756600 2.615700 -3.976200
H 1.434900 3.850700 -1.451900
H -3.866700 0.547200 -3.404900
H -4.116000 4.196800 -3.317500
H -4.648800 2.706200 -1.640600
H -2.020600 0.383000 1.695600
H -4.457800 2.483800 -5.484700
H 4.140400 1.901100 -3.193100
H -6.482300 1.809700 -3.314600
H 3.539200 4.430200 -2.200200
