
 OpenBabel02282012113D

 36 36  0  0  0  0  0  0  0  0999 V2000
   -1.5667    1.2103    0.0036 C   0  0  0  0  0  0  0  0  0  0  0  0
   -1.7454    0.7033    1.3814 C   0  0  0  0  0  0  0  0  0  0  0  0
   -2.6728    1.4119   -0.8416 C   0  0  0  0  0  0  0  0  0  0  0  0
   -2.4910    1.8906   -2.1468 C   0  0  0  0  0  0  0  0  0  0  0  0
   -3.6735    1.1945   -0.4861 H   0  0  0  0  0  0  0  0  0  0  0  0
   -1.1937    2.1753   -2.6043 C   0  0  0  0  0  0  0  0  0  0  0  0
   -0.0846    1.9857   -1.7706 C   0  0  0  0  0  0  0  0  0  0  0  0
   -1.0439    2.5519   -3.6090 H   0  0  0  0  0  0  0  0  0  0  0  0
   -0.2752    1.4981   -0.4659 C   0  0  0  0  0  0  0  0  0  0  0  0
    1.2621    2.3155   -2.2877 C   0  0  0  0  0  0  0  0  0  0  0  0
    0.5764    1.3475    0.1873 H   0  0  0  0  0  0  0  0  0  0  0  0
   -3.6637    2.1019   -3.0247 C   0  0  0  0  0  0  0  0  0  0  0  0
   -2.8575    0.4462    1.8163 O   0  0  0  0  0  0  0  0  0  0  0  0
   -4.6154    2.7340   -5.1380 C   0  0  0  0  0  0  0  0  0  0  0  0
   -5.3750    4.0052   -4.7268 C   0  0  0  0  0  0  0  0  0  0  0  0
   -3.5046    2.4729   -4.2487 N   0  0  0  0  0  0  0  0  0  0  0  0
   -4.5062    5.1817   -4.7471 N   0  0  0  0  0  0  0  0  0  0  0  0
    4.5060    1.1953   -2.1562 C   0  0  0  0  0  0  0  0  0  0  0  0
    3.6436    2.4568   -2.0482 C   0  0  0  0  0  0  0  0  0  0  0  0
    3.9705    0.2564   -3.1412 N   0  0  0  0  0  0  0  0  0  0  0  0
    2.3163    2.1243   -1.5714 N   0  0  0  0  0  0  0  0  0  0  0  0
   -0.8807    0.5555    2.0210 H   0  0  0  0  0  0  0  0  0  0  0  0
    3.9058    0.7239   -4.0750 H   0  0  0  0  0  0  0  0  0  0  0  0
    3.0175   -0.0632   -2.8537 H   0  0  0  0  0  0  0  0  0  0  0  0
   -4.0910    5.2991   -5.7002 H   0  0  0  0  0  0  0  0  0  0  0  0
   -3.7338    5.0705   -4.0507 H   0  0  0  0  0  0  0  0  0  0  0  0
    1.3520    2.7229   -3.2922 H   0  0  0  0  0  0  0  0  0  0  0  0
    5.5327    1.4884   -2.4647 H   0  0  0  0  0  0  0  0  0  0  0  0
    4.5721    0.6958   -1.1657 H   0  0  0  0  0  0  0  0  0  0  0  0
    3.6134    2.9629   -3.0398 H   0  0  0  0  0  0  0  0  0  0  0  0
    4.1106    3.1590   -1.3257 H   0  0  0  0  0  0  0  0  0  0  0  0
   -4.6639    1.9378   -2.6285 H   0  0  0  0  0  0  0  0  0  0  0  0
   -5.8075    3.8851   -3.7107 H   0  0  0  0  0  0  0  0  0  0  0  0
   -6.2136    4.1673   -5.4374 H   0  0  0  0  0  0  0  0  0  0  0  0
   -4.2181    2.8765   -6.1653 H   0  0  0  0  0  0  0  0  0  0  0  0
   -5.3018    1.8591   -5.1554 H   0  0  0  0  0  0  0  0  0  0  0  0
  1  2  1  0  0  0  0
  2 13  2  0  0  0  0
  2 22  1  0  0  0  0
  3  5  1  0  0  0  0
  3  1  2  0  0  0  0
  4  3  1  0  0  0  0
  6  4  2  0  0  0  0
  6  7  1  0  0  0  0
  7  9  2  0  0  0  0
  8  6  1  0  0  0  0
  9  1  1  0  0  0  0
  9 11  1  0  0  0  0
 10  7  1  0  0  0  0
 10 21  2  0  0  0  0
 12 32  1  0  0  0  0
 12  4  1  0  0  0  0
 14 15  1  0  0  0  0
 14 16  1  0  0  0  0
 15 33  1  0  0  0  0
 16 12  2  0  0  0  0
 17 15  1  0  0  0  0
 17 26  1  0  0  0  0
 18 19  1  0  0  0  0
 18 29  1  0  0  0  0
 19 21  1  0  0  0  0
 19 31  1  0  0  0  0
 20 24  1  0  0  0  0
 20 18  1  0  0  0  0
 23 20  1  0  0  0  0
 25 17  1  0  0  0  0
 27 10  1  0  0  0  0
 28 18  1  0  0  0  0
 30 19  1  0  0  0  0
 34 15  1  0  0  0  0
 35 14  1  0  0  0  0
 36 14  1  0  0  0  0
M  END
