
 OpenBabel02282012083D

 99 99  0  0  1  0  0  0  0  0999 V2000
   -1.0463   -0.2933   -1.0642 C   0  0  0  0  0  0  0  0  0  0  0  0
   -0.8061   -1.7184   -0.6622 C   0  0  0  0  0  0  0  0  0  0  0  0
   -2.2981    0.3105   -1.3563 C   0  0  0  0  0  0  0  0  0  0  0  0
   -2.3315    1.6622   -1.8096 C   0  0  0  0  0  0  0  0  0  0  0  0
   -3.2122   -0.2628   -1.3153 H   0  0  0  0  0  0  0  0  0  0  0  0
   -1.1382    2.3978   -1.8989 C   0  0  0  0  0  0  0  0  0  0  0  0
    0.0837    1.7938   -1.6549 C   0  0  0  0  0  0  0  0  0  0  0  0
   -1.1539    3.4234   -2.2568 H   0  0  0  0  0  0  0  0  0  0  0  0
    0.1204    0.4543   -1.2618 C   0  0  0  0  0  0  0  0  0  0  0  0
    1.3470    2.5293   -1.8624 C   0  0  0  0  0  0  0  0  0  0  0  0
    1.0792   -0.0111   -1.0790 H   0  0  0  0  0  0  0  0  0  0  0  0
   -3.5353    2.3246   -2.3630 C   0  0  0  0  0  0  0  0  0  0  0  0
   -2.0964   -1.8100    2.4210 C   0  0  1  0  0  0  0  0  0  0  0  0
   -2.6437   -2.2091    0.9741 C   0  0  1  0  0  0  0  0  0  0  0  0
   -2.0688   -0.3425    2.4527 N   0  0  0  0  0  0  0  0  0  0  0  0
   -1.0303   -2.1372    2.4586 H   0  0  0  0  0  0  0  0  0  0  0  0
   -2.6650   -2.4066    3.7764 C   0  0  0  0  0  0  0  0  0  0  0  0
   -1.4622   -2.4601    0.1694 N   0  0  0  0  0  0  0  0  0  0  0  0
   -3.2125   -1.3518    0.5681 H   0  0  0  0  0  0  0  0  0  0  0  0
   -3.5933   -3.4428    0.8015 C   0  0  0  0  0  0  0  0  0  0  0  0
   -3.7517   -2.2494    3.8578 H   0  0  0  0  0  0  0  0  0  0  0  0
   -2.0775   -1.6842    5.0102 C   0  0  0  0  0  0  0  0  0  0  0  0
   -2.3141   -3.9024    3.9718 C   0  0  0  0  0  0  0  0  0  0  0  0
   -3.1499   -4.3278    1.2768 H   0  0  0  0  0  0  0  0  0  0  0  0
   -3.7372   -3.8539   -0.6782 C   0  0  0  0  0  0  0  0  0  0  0  0
   -5.0130   -3.1757    1.3364 C   0  0  0  0  0  0  0  0  0  0  0  0
   -1.2121   -4.0534    3.9286 H   0  0  0  0  0  0  0  0  0  0  0  0
   -2.7870   -4.5811    3.2567 H   0  0  0  0  0  0  0  0  0  0  0  0
   -2.6627   -4.2571    4.9657 H   0  0  0  0  0  0  0  0  0  0  0  0
   -2.3817   -0.6184    5.0375 H   0  0  0  0  0  0  0  0  0  0  0  0
   -0.9682   -1.7541    5.0248 H   0  0  0  0  0  0  0  0  0  0  0  0
   -2.4693   -2.1347    5.9489 H   0  0  0  0  0  0  0  0  0  0  0  0
   -5.0451   -2.9419    2.4058 H   0  0  0  0  0  0  0  0  0  0  0  0
   -5.6501   -4.0748    1.1962 H   0  0  0  0  0  0  0  0  0  0  0  0
   -5.4778   -2.3292    0.7852 H   0  0  0  0  0  0  0  0  0  0  0  0
   -2.7570   -4.1569   -1.1043 H   0  0  0  0  0  0  0  0  0  0  0  0
   -4.1573   -3.0266   -1.2866 H   0  0  0  0  0  0  0  0  0  0  0  0
   -4.4009   -4.7423   -0.7632 H   0  0  0  0  0  0  0  0  0  0  0  0
   -5.5475    2.2703   -3.6437 C   0  0  1  0  0  0  0  0  0  0  0  0
   -6.8718    2.7510   -2.9465 C   0  0  1  0  0  0  0  0  0  0  0  0
   -4.5949    1.6727   -2.7047 N   0  0  0  0  0  0  0  0  0  0  0  0
   -5.0693    3.1605   -4.1018 H   0  0  0  0  0  0  0  0  0  0  0  0
   -5.7628    1.2475   -4.8122 C   0  0  0  0  0  0  0  0  0  0  0  0
   -6.6604    3.0022   -1.5139 N   0  0  0  0  0  0  0  0  0  0  0  0
   -7.6035    1.9155   -3.0331 H   0  0  0  0  0  0  0  0  0  0  0  0
   -7.4411    4.0515   -3.6352 C   0  0  0  0  0  0  0  0  0  0  0  0
   -6.2087    0.3208   -4.3875 H   0  0  0  0  0  0  0  0  0  0  0  0
   -4.4145    0.8636   -5.4560 C   0  0  0  0  0  0  0  0  0  0  0  0
   -6.7003    1.7402   -5.9241 C   0  0  0  0  0  0  0  0  0  0  0  0
   -7.4449    3.9277   -4.7322 H   0  0  0  0  0  0  0  0  0  0  0  0
   -6.5975    5.3087   -3.3240 C   0  0  0  0  0  0  0  0  0  0  0  0
   -8.9035    4.3197   -3.2518 C   0  0  0  0  0  0  0  0  0  0  0  0
   -7.7245    1.9056   -5.5350 H   0  0  0  0  0  0  0  0  0  0  0  0
   -6.7910    0.9676   -6.7178 H   0  0  0  0  0  0  0  0  0  0  0  0
   -6.3066    2.6706   -6.3877 H   0  0  0  0  0  0  0  0  0  0  0  0
   -3.7269    0.4099   -4.7119 H   0  0  0  0  0  0  0  0  0  0  0  0
   -3.9222    1.7569   -5.8973 H   0  0  0  0  0  0  0  0  0  0  0  0
   -4.5679    0.1095   -6.2576 H   0  0  0  0  0  0  0  0  0  0  0  0
   -9.5339    3.4488   -3.5289 H   0  0  0  0  0  0  0  0  0  0  0  0
   -9.2821    5.2031   -3.8116 H   0  0  0  0  0  0  0  0  0  0  0  0
   -9.0218    4.5293   -2.1703 H   0  0  0  0  0  0  0  0  0  0  0  0
   -5.5443    5.2068   -3.6500 H   0  0  0  0  0  0  0  0  0  0  0  0
   -6.6025    5.5290   -2.2356 H   0  0  0  0  0  0  0  0  0  0  0  0
   -7.0137    6.1908   -3.8558 H   0  0  0  0  0  0  0  0  0  0  0  0
    3.7629    2.3619   -2.2915 C   0  0  1  0  0  0  0  0  0  0  0  0
    3.9515    3.4542   -3.4310 C   0  0  1  0  0  0  0  0  0  0  0  0
    2.4098    1.8563   -2.1325 N   0  0  0  0  0  0  0  0  0  0  0  0
    4.0368    2.7894   -1.3075 H   0  0  0  0  0  0  0  0  0  0  0  0
    4.6505    1.0946   -2.5599 C   0  0  0  0  0  0  0  0  0  0  0  0
    2.6990    4.1102   -3.8269 N   0  0  0  0  0  0  0  0  0  0  0  0
    4.3162    2.9195   -4.3381 H   0  0  0  0  0  0  0  0  0  0  0  0
    5.0176    4.5282   -3.0017 C   0  0  0  0  0  0  0  0  0  0  0  0
    4.3209    0.6466   -3.5257 H   0  0  0  0  0  0  0  0  0  0  0  0
    4.4443    0.0179   -1.4747 C   0  0  0  0  0  0  0  0  0  0  0  0
    6.1524    1.3788   -2.6817 C   0  0  0  0  0  0  0  0  0  0  0  0
    5.9145    4.0153   -2.6062 H   0  0  0  0  0  0  0  0  0  0  0  0
    4.4966    5.4680   -1.8944 C   0  0  0  0  0  0  0  0  0  0  0  0
    5.5117    5.3727   -4.1877 C   0  0  0  0  0  0  0  0  0  0  0  0
    6.3668    2.0441   -3.5411 H   0  0  0  0  0  0  0  0  0  0  0  0
    6.6982    0.4314   -2.8817 H   0  0  0  0  0  0  0  0  0  0  0  0
    6.5432    1.8239   -1.7430 H   0  0  0  0  0  0  0  0  0  0  0  0
    3.3861   -0.3097   -1.4255 H   0  0  0  0  0  0  0  0  0  0  0  0
    4.7471    0.4010   -0.4780 H   0  0  0  0  0  0  0  0  0  0  0  0
    5.0394   -0.8893   -1.7130 H   0  0  0  0  0  0  0  0  0  0  0  0
    5.9308    4.7147   -4.9777 H   0  0  0  0  0  0  0  0  0  0  0  0
    6.3213    6.0560   -3.8502 H   0  0  0  0  0  0  0  0  0  0  0  0
    4.7077    5.9996   -4.6226 H   0  0  0  0  0  0  0  0  0  0  0  0
    4.1982    4.9192   -0.9807 H   0  0  0  0  0  0  0  0  0  0  0  0
    3.6207    6.0502   -2.2511 H   0  0  0  0  0  0  0  0  0  0  0  0
    5.2922    6.1839   -1.5964 H   0  0  0  0  0  0  0  0  0  0  0  0
    2.0649    3.3938   -4.2499 H   0  0  0  0  0  0  0  0  0  0  0  0
    2.8748    4.7887   -4.6000 H   0  0  0  0  0  0  0  0  0  0  0  0
   -1.3808    0.0217    3.1497 H   0  0  0  0  0  0  0  0  0  0  0  0
   -3.0261    0.0258    2.6601 H   0  0  0  0  0  0  0  0  0  0  0  0
   -6.3857    2.1095   -1.0439 H   0  0  0  0  0  0  0  0  0  0  0  0
   -7.5622    3.2753   -1.0650 H   0  0  0  0  0  0  0  0  0  0  0  0
    0.1372   -2.1353   -1.0021 H   0  0  0  0  0  0  0  0  0  0  0  0
   -3.4052    3.3459   -2.7214 H   0  0  0  0  0  0  0  0  0  0  0  0
    1.3579    3.6161   -1.8303 H   0  0  0  0  0  0  0  0  0  0  0  0
  1  2  1  0  0  0  0
  2 18  2  0  0  0  0
  2 97  1  0  0  0  0
  3  1  1  0  0  0  0
  3  5  1  0  0  0  0
  4  3  2  0  0  0  0
  6  7  2  0  0  0  0
  6  4  1  0  0  0  0
  7  9  1  0  0  0  0
  8  6  1  0  0  0  0
  9 11  1  0  0  0  0
  9  1  2  0  0  0  0
 10  7  1  0  0  0  0
 10 99  1  0  0  0  0
 12  4  1  0  0  0  0
 12 98  1  0  0  0  0
 13 16  1  6  0  0  0
 13 17  1  0  0  0  0
 14 19  1  6  0  0  0
 14 20  1  0  0  0  0
 14 13  1  0  0  0  0
 15 13  1  0  0  0  0
 15 93  1  0  0  0  0
 15 94  1  0  0  0  0
 17 22  1  0  0  0  0
 17 23  1  0  0  0  0
 18 14  1  0  0  0  0
 20 24  1  0  0  0  0
 20 26  1  0  0  0  0
 21 17  1  0  0  0  0
 22 31  1  0  0  0  0
 22 32  1  0  0  0  0
 23 29  1  0  0  0  0
 23 28  1  0  0  0  0
 25 38  1  0  0  0  0
 25 20  1  0  0  0  0
 26 34  1  0  0  0  0
 26 33  1  0  0  0  0
 27 23  1  0  0  0  0
 30 22  1  0  0  0  0
 35 26  1  0  0  0  0
 36 25  1  0  0  0  0
 37 25  1  0  0  0  0
 39 42  1  6  0  0  0
 39 40  1  0  0  0  0
 39 41  1  0  0  0  0
 40 45  1  6  0  0  0
 40 44  1  0  0  0  0
 41 12  2  0  0  0  0
 43 48  1  0  0  0  0
 43 47  1  0  0  0  0
 43 39  1  0  0  0  0
 44 95  1  0  0  0  0
 44 96  1  0  0  0  0
 46 51  1  0  0  0  0
 46 40  1  0  0  0  0
 48 56  1  0  0  0  0
 49 43  1  0  0  0  0
 50 46  1  0  0  0  0
 51 62  1  0  0  0  0
 51 63  1  0  0  0  0
 52 46  1  0  0  0  0
 52 61  1  0  0  0  0
 53 49  1  0  0  0  0
 54 49  1  0  0  0  0
 55 49  1  0  0  0  0
 57 48  1  0  0  0  0
 58 48  1  0  0  0  0
 59 52  1  0  0  0  0
 60 52  1  0  0  0  0
 64 51  1  0  0  0  0
 65 68  1  1  0  0  0
 66 71  1  6  0  0  0
 66 65  1  0  0  0  0
 66 70  1  0  0  0  0
 66 72  1  0  0  0  0
 67 10  2  0  0  0  0
 67 65  1  0  0  0  0
 69 65  1  0  0  0  0
 69 75  1  0  0  0  0
 70 91  1  0  0  0  0
 70 92  1  0  0  0  0
 72 77  1  0  0  0  0
 72 76  1  0  0  0  0
 73 69  1  0  0  0  0
 74 69  1  0  0  0  0
 74 83  1  0  0  0  0
 75 79  1  0  0  0  0
 75 81  1  0  0  0  0
 77 90  1  0  0  0  0
 77 88  1  0  0  0  0
 78 86  1  0  0  0  0
 78 72  1  0  0  0  0
 80 75  1  0  0  0  0
 82 74  1  0  0  0  0
 84 74  1  0  0  0  0
 85 78  1  0  0  0  0
 87 78  1  0  0  0  0
 89 77  1  0  0  0  0
M  END
