
 OpenBabel02282016063D

 37 39  0  0  1  0  0  0  0  0999 V2000
   -1.1282    1.4749    0.2425 C   0  0  0  0  0  0  0  0  0  0  0  0
   -1.0197    1.0743    1.6622 C   0  0  0  0  0  0  0  0  0  0  0  0
   -2.3784    1.5755   -0.3871 C   0  0  0  0  0  0  0  0  0  0  0  0
   -2.4776    1.9634   -1.7343 C   0  0  0  0  0  0  0  0  0  0  0  0
   -3.2782    1.3564    0.1750 H   0  0  0  0  0  0  0  0  0  0  0  0
   -1.3034    2.2446   -2.4539 C   0  0  0  0  0  0  0  0  0  0  0  0
   -0.0461    2.1483   -1.8359 C   0  0  0  0  0  0  0  0  0  0  0  0
   -1.3679    2.5411   -3.4940 H   0  0  0  0  0  0  0  0  0  0  0  0
    0.0332    1.7638   -0.4862 C   0  0  0  0  0  0  0  0  0  0  0  0
    1.1754    2.4564   -2.6109 C   0  0  0  0  0  0  0  0  0  0  0  0
    0.9988    1.6887    0.0011 H   0  0  0  0  0  0  0  0  0  0  0  0
   -3.8438    2.0790   -2.3787 C   0  0  2  0  0  0  0  0  0  0  0  0
   -2.0137    0.8162    2.3238 O   0  0  0  0  0  0  0  0  0  0  0  0
   -4.5035    2.0517   -4.5917 C   0  0  1  0  0  0  0  0  0  0  0  0
   -5.1389    3.1856   -3.8309 C   0  0  1  0  0  0  0  0  0  0  0  0
   -3.9906    1.1725   -3.5461 N   0  0  0  0  0  0  0  0  0  0  0  0
   -3.6215    2.4306   -5.1612 H   0  0  0  0  0  0  0  0  0  0  0  0
   -5.5177    1.4501   -5.5768 C   0  0  0  0  0  0  0  0  0  0  0  0
   -4.1573    3.4630   -2.8009 N   0  0  0  0  0  0  0  0  0  0  0  0
   -6.0769    2.8419   -3.3272 H   0  0  0  0  0  0  0  0  0  0  0  0
   -5.4950    4.3357   -4.7782 C   0  0  0  0  0  0  0  0  0  0  0  0
   -6.4037    1.0674   -5.0229 H   0  0  0  0  0  0  0  0  0  0  0  0
   -5.9591    2.5633   -6.5562 C   0  0  0  0  0  0  0  0  0  0  0  0
   -4.5852    4.7007   -5.3041 H   0  0  0  0  0  0  0  0  0  0  0  0
   -6.5166    3.7950   -5.8036 C   0  0  0  0  0  0  0  0  0  0  0  0
   -6.7293    2.1683   -7.2529 H   0  0  0  0  0  0  0  0  0  0  0  0
   -5.0809    2.8834   -7.1584 H   0  0  0  0  0  0  0  0  0  0  0  0
   -6.7832    4.5937   -6.5282 H   0  0  0  0  0  0  0  0  0  0  0  0
   -7.4444    3.4966   -5.2663 H   0  0  0  0  0  0  0  0  0  0  0  0
    2.2816    2.3875   -2.0981 O   0  0  0  0  0  0  0  0  0  0  0  0
   -0.0447    1.0072    2.1343 H   0  0  0  0  0  0  0  0  0  0  0  0
    1.0974    2.7540   -3.6511 H   0  0  0  0  0  0  0  0  0  0  0  0
   -4.7036    0.4424   -3.3099 H   0  0  0  0  0  0  0  0  0  0  0  0
   -4.6181    1.7973   -1.6252 H   0  0  0  0  0  0  0  0  0  0  0  0
   -5.0624    0.6078   -6.1396 H   0  0  0  0  0  0  0  0  0  0  0  0
   -5.9386    5.1803   -4.2092 H   0  0  0  0  0  0  0  0  0  0  0  0
   -3.3204    3.9005   -3.2562 H   0  0  0  0  0  0  0  0  0  0  0  0
  1  2  1  0  0  0  0
  2 31  1  0  0  0  0
  2 13  2  0  0  0  0
  3  5  1  0  0  0  0
  3  1  1  0  0  0  0
  4  3  2  0  0  0  0
  6  7  2  0  0  0  0
  6  4  1  0  0  0  0
  7  9  1  0  0  0  0
  8  6  1  0  0  0  0
  9 11  1  0  0  0  0
  9  1  2  0  0  0  0
 10 30  2  0  0  0  0
 10  7  1  0  0  0  0
 12  4  1  0  0  0  0
 12 34  1  1  0  0  0
 14 17  1  6  0  0  0
 14 15  1  0  0  0  0
 14 16  1  0  0  0  0
 15 20  1  1  0  0  0
 15 19  1  0  0  0  0
 16 33  1  0  0  0  0
 16 12  1  0  0  0  0
 18 22  1  0  0  0  0
 18 14  1  0  0  0  0
 19 12  1  0  0  0  0
 21 36  1  0  0  0  0
 21 15  1  0  0  0  0
 23 25  1  0  0  0  0
 23 18  1  0  0  0  0
 24 21  1  0  0  0  0
 25 29  1  0  0  0  0
 25 21  1  0  0  0  0
 26 23  1  0  0  0  0
 27 23  1  0  0  0  0
 28 25  1  0  0  0  0
 32 10  1  0  0  0  0
 35 18  1  0  0  0  0
 37 19  1  0  0  0  0
M  END
