
 OpenBabel02282012083D

 72 74  0  0  1  0  0  0  0  0999 V2000
   -1.1735    1.2874   -0.0182 C   0  0  0  0  0  0  0  0  0  0  0  0
   -0.9203    0.7856    1.3498 C   0  0  0  0  0  0  0  0  0  0  0  0
   -2.4822    1.4014   -0.5149 C   0  0  0  0  0  0  0  0  0  0  0  0
   -2.7108    1.8751   -1.8162 C   0  0  0  0  0  0  0  0  0  0  0  0
   -3.3223    1.1191    0.1081 H   0  0  0  0  0  0  0  0  0  0  0  0
   -1.6181    2.2421   -2.6189 C   0  0  0  0  0  0  0  0  0  0  0  0
   -0.3046    2.1399   -2.1320 C   0  0  0  0  0  0  0  0  0  0  0  0
   -1.7909    2.6133   -3.6201 H   0  0  0  0  0  0  0  0  0  0  0  0
   -0.0914    1.6555   -0.8293 C   0  0  0  0  0  0  0  0  0  0  0  0
    0.8625    2.5507   -3.0121 C   0  0  2  0  0  0  0  0  0  0  0  0
    0.9150    1.5669   -0.4428 H   0  0  0  0  0  0  0  0  0  0  0  0
   -4.1267    1.9925   -2.3438 C   0  0  2  0  0  0  0  0  0  0  0  0
   -1.8436    0.4586    2.0794 O   0  0  0  0  0  0  0  0  0  0  0  0
   -4.6493    2.0425   -4.6129 C   0  0  1  0  0  0  0  0  0  0  0  0
   -5.3158    3.2225   -3.8744 C   0  0  1  0  0  0  0  0  0  0  0  0
   -4.3783    1.1252   -3.5072 N   0  0  0  0  0  0  0  0  0  0  0  0
   -3.6560    2.3654   -5.0054 H   0  0  0  0  0  0  0  0  0  0  0  0
   -5.4305    1.3660   -5.7816 C   0  0  0  0  0  0  0  0  0  0  0  0
   -4.4020    3.3753   -2.7483 N   0  0  0  0  0  0  0  0  0  0  0  0
   -6.2992    2.9042   -3.4481 H   0  0  0  0  0  0  0  0  0  0  0  0
   -5.5342    4.5466   -4.6703 C   0  0  0  0  0  0  0  0  0  0  0  0
   -6.5155    1.3742   -5.5398 H   0  0  0  0  0  0  0  0  0  0  0  0
   -5.0332   -0.1114   -5.9687 C   0  0  0  0  0  0  0  0  0  0  0  0
   -5.1436    2.0751   -7.1252 C   0  0  0  0  0  0  0  0  0  0  0  0
   -4.6949    4.6775   -5.3873 H   0  0  0  0  0  0  0  0  0  0  0  0
   -5.5272    5.7880   -3.7578 C   0  0  0  0  0  0  0  0  0  0  0  0
   -6.9006    4.5342   -5.3934 C   0  0  0  0  0  0  0  0  0  0  0  0
   -5.3371    3.1578   -7.1214 H   0  0  0  0  0  0  0  0  0  0  0  0
   -5.7524    1.6203   -7.9357 H   0  0  0  0  0  0  0  0  0  0  0  0
   -4.0706    1.9633   -7.3932 H   0  0  0  0  0  0  0  0  0  0  0  0
   -5.2694   -0.7022   -5.0587 H   0  0  0  0  0  0  0  0  0  0  0  0
   -3.9479   -0.2065   -6.1891 H   0  0  0  0  0  0  0  0  0  0  0  0
   -5.6086   -0.5626   -6.8056 H   0  0  0  0  0  0  0  0  0  0  0  0
   -7.0636    3.6624   -6.0448 H   0  0  0  0  0  0  0  0  0  0  0  0
   -7.0171    5.4518   -6.0088 H   0  0  0  0  0  0  0  0  0  0  0  0
   -7.7254    4.5090   -4.6485 H   0  0  0  0  0  0  0  0  0  0  0  0
   -4.5458    5.8988   -3.2502 H   0  0  0  0  0  0  0  0  0  0  0  0
   -6.3273    5.7215   -2.9892 H   0  0  0  0  0  0  0  0  0  0  0  0
   -5.6855    6.7091   -4.3593 H   0  0  0  0  0  0  0  0  0  0  0  0
    3.0460    1.8575   -2.6434 C   0  0  1  0  0  0  0  0  0  0  0  0
    2.9886    3.3816   -2.8894 C   0  0  1  0  0  0  0  0  0  0  0  0
    1.7830    1.4189   -3.2413 N   0  0  0  0  0  0  0  0  0  0  0  0
    2.9511    1.6583   -1.5514 H   0  0  0  0  0  0  0  0  0  0  0  0
    4.2819    1.0401   -3.1335 C   0  0  0  0  0  0  0  0  0  0  0  0
    1.6296    3.6753   -2.4433 N   0  0  0  0  0  0  0  0  0  0  0  0
    3.0095    3.5909   -3.9866 H   0  0  0  0  0  0  0  0  0  0  0  0
    4.0613    4.3020   -2.2316 C   0  0  0  0  0  0  0  0  0  0  0  0
    4.6082    1.4357   -4.1196 H   0  0  0  0  0  0  0  0  0  0  0  0
    3.9369   -0.4505   -3.3317 C   0  0  0  0  0  0  0  0  0  0  0  0
    5.4286    1.0857   -2.0955 C   0  0  0  0  0  0  0  0  0  0  0  0
    4.3044    3.9083   -1.2210 H   0  0  0  0  0  0  0  0  0  0  0  0
    3.5380    5.7400   -2.0413 C   0  0  0  0  0  0  0  0  0  0  0  0
    5.3218    4.4066   -3.1220 C   0  0  0  0  0  0  0  0  0  0  0  0
    5.7474    2.0961   -1.8036 H   0  0  0  0  0  0  0  0  0  0  0  0
    6.3181    0.5456   -2.4846 H   0  0  0  0  0  0  0  0  0  0  0  0
    5.1095    0.5919   -1.1520 H   0  0  0  0  0  0  0  0  0  0  0  0
    3.1584   -0.5878   -4.1096 H   0  0  0  0  0  0  0  0  0  0  0  0
    3.5740   -0.9027   -2.3833 H   0  0  0  0  0  0  0  0  0  0  0  0
    4.8337   -1.0104   -3.6744 H   0  0  0  0  0  0  0  0  0  0  0  0
    5.7688    3.4404   -3.3995 H   0  0  0  0  0  0  0  0  0  0  0  0
    6.1000    5.0150   -2.6134 H   0  0  0  0  0  0  0  0  0  0  0  0
    5.0692    4.9024   -4.0844 H   0  0  0  0  0  0  0  0  0  0  0  0
    2.6592    5.7615   -1.3640 H   0  0  0  0  0  0  0  0  0  0  0  0
    3.2466    6.1883   -3.0158 H   0  0  0  0  0  0  0  0  0  0  0  0
    4.3209    6.3757   -1.5746 H   0  0  0  0  0  0  0  0  0  0  0  0
    1.9226    1.3401   -4.2779 H   0  0  0  0  0  0  0  0  0  0  0  0
    0.4680    2.8924   -3.9988 H   0  0  0  0  0  0  0  0  0  0  0  0
    1.6213    3.6274   -1.3961 H   0  0  0  0  0  0  0  0  0  0  0  0
   -3.5745    0.4890   -3.7250 H   0  0  0  0  0  0  0  0  0  0  0  0
   -4.8366    3.9018   -1.9540 H   0  0  0  0  0  0  0  0  0  0  0  0
   -4.8562    1.6877   -1.5582 H   0  0  0  0  0  0  0  0  0  0  0  0
    0.0981    0.7046    1.7171 H   0  0  0  0  0  0  0  0  0  0  0  0
  1  2  1  0  0  0  0
  2 72  1  0  0  0  0
  2 13  2  0  0  0  0
  3  1  1  0  0  0  0
  3  5  1  0  0  0  0
  4  3  2  0  0  0  0
  6  7  2  0  0  0  0
  6  4  1  0  0  0  0
  7  9  1  0  0  0  0
  8  6  1  0  0  0  0
  9 11  1  0  0  0  0
  9  1  2  0  0  0  0
 10 67  1  6  0  0  0
 10 45  1  0  0  0  0
 10  7  1  0  0  0  0
 12  4  1  0  0  0  0
 12 71  1  1  0  0  0
 14 17  1  6  0  0  0
 14 15  1  0  0  0  0
 14 16  1  0  0  0  0
 15 20  1  1  0  0  0
 15 19  1  0  0  0  0
 16 12  1  0  0  0  0
 18 22  1  0  0  0  0
 18 14  1  0  0  0  0
 19 12  1  0  0  0  0
 19 70  1  0  0  0  0
 21 15  1  0  0  0  0
 21 26  1  0  0  0  0
 23 18  1  0  0  0  0
 23 31  1  0  0  0  0
 24 28  1  0  0  0  0
 24 18  1  0  0  0  0
 25 21  1  0  0  0  0
 26 37  1  0  0  0  0
 26 38  1  0  0  0  0
 27 21  1  0  0  0  0
 27 36  1  0  0  0  0
 29 24  1  0  0  0  0
 30 24  1  0  0  0  0
 32 23  1  0  0  0  0
 33 23  1  0  0  0  0
 34 27  1  0  0  0  0
 35 27  1  0  0  0  0
 39 26  1  0  0  0  0
 40 43  1  1  0  0  0
 41 46  1  6  0  0  0
 41 40  1  0  0  0  0
 41 45  1  0  0  0  0
 41 47  1  0  0  0  0
 42 10  1  0  0  0  0
 42 40  1  0  0  0  0
 44 40  1  0  0  0  0
 44 50  1  0  0  0  0
 45 68  1  0  0  0  0
 47 52  1  0  0  0  0
 47 51  1  0  0  0  0
 48 44  1  0  0  0  0
 49 44  1  0  0  0  0
 49 58  1  0  0  0  0
 50 54  1  0  0  0  0
 50 56  1  0  0  0  0
 52 65  1  0  0  0  0
 52 63  1  0  0  0  0
 53 61  1  0  0  0  0
 53 47  1  0  0  0  0
 55 50  1  0  0  0  0
 57 49  1  0  0  0  0
 59 49  1  0  0  0  0
 60 53  1  0  0  0  0
 62 53  1  0  0  0  0
 64 52  1  0  0  0  0
 66 42  1  0  0  0  0
 69 16  1  0  0  0  0
M  END
