48

C -2.124900 1.405200 0.314800
C -2.806300 0.671900 1.391500
C -2.857800 2.031300 -0.686400
C -2.207300 2.728100 -1.705100
H -3.936400 1.993300 -0.691700
C -0.817600 2.788200 -1.706400
C -0.069300 2.164400 -0.707200
H -0.288900 3.323300 -2.480900
C -0.731200 1.473700 0.301300
C 1.385400 2.233900 -0.715500
H -0.182600 0.979600 1.090300
C -2.969100 3.387900 -2.756800
O -2.257700 0.103500 2.300000
C -4.955500 3.977000 -3.832600
C -5.791700 2.914000 -4.609000
N -4.229900 3.351900 -2.781500
N -6.645300 2.140100 -3.727400
C 3.976800 2.200400 -2.925300
C 3.435300 2.876200 -1.628400
N 3.399800 2.779800 -4.124200
N 2.013400 2.846600 -1.622200
H -3.910900 0.680000 1.304200
H 3.626700 3.766600 -4.185000
H 2.389600 2.697300 -4.088200
H -7.303300 2.745800 -3.248800
H -6.078900 1.681400 -3.022200
H -2.377600 3.920400 -3.517100
H 1.894900 1.726200 0.117200
C -4.847500 1.944900 -5.323000
C 5.493600 2.386000 -2.980900
H 3.737300 3.929200 -1.643400
H 3.878200 2.389500 -0.743900
H 5.876300 1.935100 -3.892100
H 5.970800 1.915800 -2.125300
H 5.751100 3.443200 -2.985400
H -5.652600 4.683700 -3.369200
H -4.306000 4.524300 -4.535700
H -4.235400 2.470800 -6.051200
H -5.431500 1.184200 -5.832900
H -4.194100 1.454800 -4.604100
C -6.676100 3.632500 -5.628800
H -7.345000 4.331800 -5.131600
H -7.277500 2.900100 -6.159800
H -6.070600 4.180600 -6.345700
C 3.630300 0.710400 -2.906600
H 2.553400 0.573200 -2.834900
H 4.103500 0.216500 -2.061700
H 3.976400 0.249100 -3.827000
