
 OpenBabel02022020203D

 99102  0  0  1  0  0  0  0  0999 V2000
   -1.1184    1.1994   -0.1252 C   0  0  0  0  0  0  0  0  0  0  0  0
   -0.8540    0.5077    1.2030 C   0  0  1  0  0  0  0  0  0  0  0  0
   -2.4295    1.4621   -0.5532 C   0  0  0  0  0  0  0  0  0  0  0  0
   -2.6670    2.0441   -1.8080 C   0  0  0  0  0  0  0  0  0  0  0  0
   -3.2661    1.1787    0.0721 H   0  0  0  0  0  0  0  0  0  0  0  0
   -1.5776    2.4006   -2.6224 C   0  0  0  0  0  0  0  0  0  0  0  0
   -0.2592    2.1966   -2.1802 C   0  0  0  0  0  0  0  0  0  0  0  0
   -1.7576    2.8655   -3.5843 H   0  0  0  0  0  0  0  0  0  0  0  0
   -0.0411    1.5735   -0.9397 C   0  0  0  0  0  0  0  0  0  0  0  0
    0.9133    2.6730   -3.0216 C   0  0  2  0  0  0  0  0  0  0  0  0
    0.9674    1.3928   -0.5981 H   0  0  0  0  0  0  0  0  0  0  0  0
   -4.0918    2.2673   -2.2739 C   0  0  2  0  0  0  0  0  0  0  0  0
   -1.5552    0.3474    3.3585 C   0  0  1  0  0  0  0  0  0  0  0  0
   -2.4298   -0.5982    2.5088 C   0  0  1  0  0  0  0  0  0  0  0  0
   -1.2000    1.3505    2.3580 N   0  0  0  0  0  0  0  0  0  0  0  0
   -0.6056   -0.1732    3.6378 H   0  0  0  0  0  0  0  0  0  0  0  0
   -2.1117    0.9686    4.6733 C   0  0  0  0  0  0  0  0  0  0  0  0
   -1.5697   -0.7794    1.3377 N   0  0  0  0  0  0  0  0  0  0  0  0
   -3.3373   -0.0480    2.1604 H   0  0  0  0  0  0  0  0  0  0  0  0
   -2.9202   -1.9398    3.1291 C   0  0  0  0  0  0  0  0  0  0  0  0
   -3.1798    1.2375    4.5267 H   0  0  0  0  0  0  0  0  0  0  0  0
   -1.3577    2.2639    5.0372 C   0  0  0  0  0  0  0  0  0  0  0  0
   -1.9231    0.0033    5.8684 C   0  0  0  0  0  0  0  0  0  0  0  0
   -2.1136   -2.3584    3.7685 H   0  0  0  0  0  0  0  0  0  0  0  0
   -3.2311   -2.9932    2.0485 C   0  0  0  0  0  0  0  0  0  0  0  0
   -4.2298   -1.7289    3.9265 C   0  0  0  0  0  0  0  0  0  0  0  0
   -2.3597   -0.9959    5.7279 H   0  0  0  0  0  0  0  0  0  0  0  0
   -2.3632    0.4431    6.7885 H   0  0  0  0  0  0  0  0  0  0  0  0
   -0.8404   -0.1705    6.0527 H   0  0  0  0  0  0  0  0  0  0  0  0
   -1.4835    3.0358    4.2499 H   0  0  0  0  0  0  0  0  0  0  0  0
   -0.2712    2.0657    5.1679 H   0  0  0  0  0  0  0  0  0  0  0  0
   -1.7580    2.6925    5.9808 H   0  0  0  0  0  0  0  0  0  0  0  0
   -4.1756   -0.9485    4.6998 H   0  0  0  0  0  0  0  0  0  0  0  0
   -4.5393   -2.6776    4.4147 H   0  0  0  0  0  0  0  0  0  0  0  0
   -5.0463   -1.4091    3.2430 H   0  0  0  0  0  0  0  0  0  0  0  0
   -2.3207   -3.2425    1.4646 H   0  0  0  0  0  0  0  0  0  0  0  0
   -4.0165   -2.6268    1.3517 H   0  0  0  0  0  0  0  0  0  0  0  0
   -3.5851   -3.9357    2.5191 H   0  0  0  0  0  0  0  0  0  0  0  0
   -4.7924    1.9788   -4.4789 C   0  0  1  0  0  0  0  0  0  0  0  0
   -5.2416    3.3550   -3.9414 C   0  0  1  0  0  0  0  0  0  0  0  0
   -4.5253    1.2514   -3.2435 N   0  0  0  0  0  0  0  0  0  0  0  0
   -3.8075    2.0821   -4.9954 H   0  0  0  0  0  0  0  0  0  0  0  0
   -5.7746    1.2096   -5.4182 C   0  0  0  0  0  0  0  0  0  0  0  0
   -4.2390    3.5846   -2.9054 N   0  0  0  0  0  0  0  0  0  0  0  0
   -6.2234    3.2644   -3.4148 H   0  0  0  0  0  0  0  0  0  0  0  0
   -5.3366    4.5187   -4.9772 C   0  0  0  0  0  0  0  0  0  0  0  0
   -6.8175    1.4396   -5.1091 H   0  0  0  0  0  0  0  0  0  0  0  0
   -5.6183   -0.3202   -5.3057 C   0  0  0  0  0  0  0  0  0  0  0  0
   -5.5316    1.5753   -6.8989 C   0  0  0  0  0  0  0  0  0  0  0  0
   -4.5551    4.3711   -5.7543 H   0  0  0  0  0  0  0  0  0  0  0  0
   -5.0644    5.8959   -4.3454 C   0  0  0  0  0  0  0  0  0  0  0  0
   -6.7478    4.5828   -5.6044 C   0  0  0  0  0  0  0  0  0  0  0  0
   -5.5700    2.6537   -7.1130 H   0  0  0  0  0  0  0  0  0  0  0  0
   -6.2805    1.0685   -7.5448 H   0  0  0  0  0  0  0  0  0  0  0  0
   -4.5193    1.2396   -7.2118 H   0  0  0  0  0  0  0  0  0  0  0  0
   -5.8435   -0.6651   -4.2741 H   0  0  0  0  0  0  0  0  0  0  0  0
   -4.5876   -0.6366   -5.5749 H   0  0  0  0  0  0  0  0  0  0  0  0
   -6.3380   -0.8324   -5.9801 H   0  0  0  0  0  0  0  0  0  0  0  0
   -7.0899    3.6364   -6.0500 H   0  0  0  0  0  0  0  0  0  0  0  0
   -6.7833    5.3671   -6.3905 H   0  0  0  0  0  0  0  0  0  0  0  0
   -7.4992    4.8367   -4.8257 H   0  0  0  0  0  0  0  0  0  0  0  0
   -4.0357    5.9404   -3.9297 H   0  0  0  0  0  0  0  0  0  0  0  0
   -5.7936    6.1141   -3.5360 H   0  0  0  0  0  0  0  0  0  0  0  0
   -5.1368    6.6927   -5.1171 H   0  0  0  0  0  0  0  0  0  0  0  0
    3.0904    1.9455   -2.6770 C   0  0  1  0  0  0  0  0  0  0  0  0
    3.0427    3.4872   -2.7639 C   0  0  1  0  0  0  0  0  0  0  0  0
    1.8417    1.5720   -3.3496 N   0  0  0  0  0  0  0  0  0  0  0  0
    2.9695    1.6349   -1.6150 H   0  0  0  0  0  0  0  0  0  0  0  0
    4.3426    1.1856   -3.2149 C   0  0  0  0  0  0  0  0  0  0  0  0
    1.6713    3.7387   -2.3357 N   0  0  0  0  0  0  0  0  0  0  0  0
    3.1000    3.8116   -3.8309 H   0  0  0  0  0  0  0  0  0  0  0  0
    4.0912    4.3269   -1.9692 C   0  0  0  0  0  0  0  0  0  0  0  0
    4.7000    1.6882   -4.1395 H   0  0  0  0  0  0  0  0  0  0  0  0
    4.0078   -0.2723   -3.5891 C   0  0  0  0  0  0  0  0  0  0  0  0
    5.4552    1.1142   -2.1412 C   0  0  0  0  0  0  0  0  0  0  0  0
    4.2986    3.8214   -1.0012 H   0  0  0  0  0  0  0  0  0  0  0  0
    3.5616    5.7363   -1.6333 C   0  0  0  0  0  0  0  0  0  0  0  0
    5.3831    4.5282   -2.7948 C   0  0  0  0  0  0  0  0  0  0  0  0
    5.7612    2.0853   -1.7274 H   0  0  0  0  0  0  0  0  0  0  0  0
    6.3588    0.6206   -2.5583 H   0  0  0  0  0  0  0  0  0  0  0  0
    5.1070    0.5185   -1.2694 H   0  0  0  0  0  0  0  0  0  0  0  0
    3.2557   -0.3196   -4.4027 H   0  0  0  0  0  0  0  0  0  0  0  0
    3.6150   -0.8268   -2.7094 H   0  0  0  0  0  0  0  0  0  0  0  0
    4.9169   -0.7913   -3.9624 H   0  0  0  0  0  0  0  0  0  0  0  0
    5.8411    3.5982   -3.1632 H   0  0  0  0  0  0  0  0  0  0  0  0
    6.1409    5.0724   -2.1913 H   0  0  0  0  0  0  0  0  0  0  0  0
    5.1652    5.1315   -3.7026 H   0  0  0  0  0  0  0  0  0  0  0  0
    2.6606    5.6855   -0.9876 H   0  0  0  0  0  0  0  0  0  0  0  0
    3.3044    6.2951   -2.5589 H   0  0  0  0  0  0  0  0  0  0  0  0
    4.3279    6.3110   -1.0694 H   0  0  0  0  0  0  0  0  0  0  0  0
    2.0078    1.6104   -4.3845 H   0  0  0  0  0  0  0  0  0  0  0  0
    0.5232    3.1099   -3.9714 H   0  0  0  0  0  0  0  0  0  0  0  0
    1.6345    3.5978   -1.2973 H   0  0  0  0  0  0  0  0  0  0  0  0
   -2.1333   -1.0283    0.4907 H   0  0  0  0  0  0  0  0  0  0  0  0
    0.2332    0.2844    1.2878 H   0  0  0  0  0  0  0  0  0  0  0  0
   -2.0564    1.9185    2.1476 H   0  0  0  0  0  0  0  0  0  0  0  0
   -3.8160    0.4938   -3.3913 H   0  0  0  0  0  0  0  0  0  0  0  0
   -4.5512    4.2938   -2.2010 H   0  0  0  0  0  0  0  0  0  0  0  0
   -4.7922    2.1806   -1.4116 H   0  0  0  0  0  0  0  0  0  0  0  0
  1  2  1  0  0  0  0
  2 95  1  1  0  0  0
  2 18  1  0  0  0  0
  2 15  1  0  0  0  0
  3  1  1  0  0  0  0
  3  5  1  0  0  0  0
  4  3  2  0  0  0  0
  6  7  2  0  0  0  0
  6  4  1  0  0  0  0
  7  9  1  0  0  0  0
  8  6  1  0  0  0  0
  9 11  1  0  0  0  0
  9  1  2  0  0  0  0
 10 92  1  6  0  0  0
 10 70  1  0  0  0  0
 10  7  1  0  0  0  0
 12  4  1  0  0  0  0
 12 99  1  1  0  0  0
 13 16  1  1  0  0  0
 13 17  1  0  0  0  0
 14 19  1  6  0  0  0
 14 20  1  0  0  0  0
 14 13  1  0  0  0  0
 15 13  1  0  0  0  0
 17 22  1  0  0  0  0
 17 23  1  0  0  0  0
 18 14  1  0  0  0  0
 20 24  1  0  0  0  0
 20 26  1  0  0  0  0
 21 17  1  0  0  0  0
 22 31  1  0  0  0  0
 22 32  1  0  0  0  0
 23 29  1  0  0  0  0
 23 28  1  0  0  0  0
 25 38  1  0  0  0  0
 25 20  1  0  0  0  0
 26 34  1  0  0  0  0
 26 33  1  0  0  0  0
 27 23  1  0  0  0  0
 30 22  1  0  0  0  0
 35 26  1  0  0  0  0
 36 25  1  0  0  0  0
 37 25  1  0  0  0  0
 39 42  1  6  0  0  0
 39 40  1  0  0  0  0
 39 41  1  0  0  0  0
 40 45  1  1  0  0  0
 40 44  1  0  0  0  0
 41 12  1  0  0  0  0
 43 48  1  0  0  0  0
 43 47  1  0  0  0  0
 43 39  1  0  0  0  0
 44 12  1  0  0  0  0
 44 98  1  0  0  0  0
 46 51  1  0  0  0  0
 46 40  1  0  0  0  0
 48 56  1  0  0  0  0
 49 43  1  0  0  0  0
 50 46  1  0  0  0  0
 51 62  1  0  0  0  0
 51 63  1  0  0  0  0
 52 46  1  0  0  0  0
 52 61  1  0  0  0  0
 53 49  1  0  0  0  0
 54 49  1  0  0  0  0
 55 49  1  0  0  0  0
 57 48  1  0  0  0  0
 58 48  1  0  0  0  0
 59 52  1  0  0  0  0
 60 52  1  0  0  0  0
 64 51  1  0  0  0  0
 65 68  1  1  0  0  0
 66 71  1  6  0  0  0
 66 65  1  0  0  0  0
 66 70  1  0  0  0  0
 66 72  1  0  0  0  0
 67 10  1  0  0  0  0
 67 65  1  0  0  0  0
 69 65  1  0  0  0  0
 69 75  1  0  0  0  0
 70 93  1  0  0  0  0
 72 77  1  0  0  0  0
 72 76  1  0  0  0  0
 73 69  1  0  0  0  0
 74 69  1  0  0  0  0
 74 83  1  0  0  0  0
 75 79  1  0  0  0  0
 75 81  1  0  0  0  0
 77 90  1  0  0  0  0
 77 88  1  0  0  0  0
 78 86  1  0  0  0  0
 78 72  1  0  0  0  0
 80 75  1  0  0  0  0
 82 74  1  0  0  0  0
 84 74  1  0  0  0  0
 85 78  1  0  0  0  0
 87 78  1  0  0  0  0
 89 77  1  0  0  0  0
 91 67  1  0  0  0  0
 94 18  1  0  0  0  0
 96 15  1  0  0  0  0
 97 41  1  0  0  0  0
M  END
