
     RDKit          3D

  0  0  0  0  0  0  0  0  0  0999 V3000
M  V30 BEGIN CTAB
M  V30 COUNTS 56 60 0 0 0
M  V30 BEGIN ATOM
M  V30 1 C -1.3676 1.3212 -1.1759 0
M  V30 2 C -1.6605 0.5482 0.0354 0
M  V30 3 C -2.3374 2.1611 -1.7204 0
M  V30 4 C -2.0600 2.8940 -2.8618 0
M  V30 5 H -3.3097 2.2536 -1.2608 0
M  V30 6 C -0.8044 2.7909 -3.4505 0
M  V30 7 C 0.1715 1.9564 -2.9161 0
M  V30 8 H -0.5834 3.3685 -4.3367 0
M  V30 9 C -0.1149 1.2188 -1.7807 0
M  V30 10 C 1.5336 1.9067 -3.5680 0
M  V30 11 H 0.6270 0.5572 -1.3617 0
M  V30 12 C -3.1031 3.7834 -3.4987 0
M  V30 13 O -0.8931 -0.1872 0.6032 0
M  V30 14 C -5.2203 2.8742 -3.6233 0
M  V30 15 C -4.7722 3.2682 -5.0412 0
M  V30 16 N -4.3817 3.7112 -2.7764 0
M  V30 17 H -4.9157 1.8338 -3.4377 0
M  V30 18 C -6.7247 2.9858 -3.4914 0
M  V30 19 N -3.3267 3.3873 -4.9110 0
M  V30 20 H -5.1544 4.2764 -5.2622 0
M  V30 21 C -5.3291 2.2937 -6.0588 0
M  V30 22 H -7.0394 4.0148 -3.6829 0
M  V30 23 C -7.3463 2.0430 -4.5271 0
M  V30 24 H -4.9644 1.2857 -5.8449 0
M  V30 25 C -6.8569 2.3367 -5.9484 0
M  V30 26 H -8.4339 2.1307 -4.4964 0
M  V30 27 H -7.0880 1.0142 -4.2654 0
M  V30 28 H -7.2030 3.3286 -6.2483 0
M  V30 29 H -7.2942 1.6104 -6.6359 0
M  V30 30 C 3.3250 1.7596 -2.1190 0
M  V30 31 C 3.5109 3.0026 -3.0064 0
M  V30 32 N 2.4134 0.9378 -2.9021 0
M  V30 33 H 2.7816 2.0574 -1.2107 0
M  V30 34 C 4.6683 1.1803 -1.7281 0
M  V30 35 N 2.1698 3.2475 -3.5195 0
M  V30 36 H 4.1337 2.7270 -3.8711 0
M  V30 37 C 4.2018 4.1045 -2.2297 0
M  V30 38 H 5.2228 0.8881 -2.6237 0
M  V30 39 C 5.4320 2.2687 -0.9665 0
M  V30 40 H 3.5977 4.3806 -1.3615 0
M  V30 41 C 5.5615 3.5629 -1.7754 0
M  V30 42 H 4.9038 2.4807 -0.0341 0
M  V30 43 H 6.4286 1.9053 -0.7088 0
M  V30 44 H 6.1766 3.3734 -2.6583 0
M  V30 45 H 6.0715 4.3150 -1.1706 0
M  V30 46 H 2.9388 0.4080 -3.5903 0
M  V30 47 H 1.4080 1.6293 -4.6243 0
M  V30 48 H 1.6583 3.8395 -2.8698 0
M  V30 49 H -4.7937 4.6362 -2.7023 0
M  V30 50 H -2.8920 2.4839 -5.0808 0
M  V30 51 H -2.7330 4.8185 -3.4901 0
M  V30 52 H -2.6920 0.6978 0.4161 0
M  V30 53 H -7.0494 2.7112 -2.4866 0
M  V30 54 H -5.0150 2.5638 -7.0682 0
M  V30 55 H 4.5422 0.2969 -1.1006 0
M  V30 56 H 4.3360 4.9926 -2.8493 0
M  V30 END ATOM
M  V30 BEGIN BOND
M  V30 1 1 1 2
M  V30 2 1 2 52
M  V30 3 2 2 13
M  V30 4 1 3 1
M  V30 5 1 3 5
M  V30 6 2 4 3
M  V30 7 2 6 7
M  V30 8 1 6 4
M  V30 9 1 7 9
M  V30 10 1 8 6
M  V30 11 1 9 11
M  V30 12 2 9 1
M  V30 13 1 10 47
M  V30 14 1 10 35
M  V30 15 1 10 7
M  V30 16 1 12 4
M  V30 17 1 12 51
M  V30 18 1 14 17
M  V30 19 1 14 15
M  V30 20 1 14 16
M  V30 21 1 15 20
M  V30 22 1 15 19
M  V30 23 1 16 12
M  V30 24 1 18 22
M  V30 25 1 18 14
M  V30 26 1 19 12
M  V30 27 1 19 50
M  V30 28 1 21 54
M  V30 29 1 21 15
M  V30 30 1 23 25
M  V30 31 1 23 18
M  V30 32 1 24 21
M  V30 33 1 25 28
M  V30 34 1 25 21
M  V30 35 1 26 23
M  V30 36 1 27 23
M  V30 37 1 29 25
M  V30 38 1 30 33
M  V30 39 1 31 36
M  V30 40 1 31 30
M  V30 41 1 31 35
M  V30 42 1 31 37
M  V30 43 1 32 10
M  V30 44 1 32 30
M  V30 45 1 34 55
M  V30 46 1 34 30
M  V30 47 1 34 39
M  V30 48 1 35 48
M  V30 49 1 37 40
M  V30 50 1 38 34
M  V30 51 1 39 42
M  V30 52 1 41 39
M  V30 53 1 41 45
M  V30 54 1 41 37
M  V30 55 1 43 39
M  V30 56 1 44 41
M  V30 57 1 46 32
M  V30 58 1 49 16
M  V30 59 1 53 18
M  V30 60 1 56 37
M  V30 END BOND
M  V30 END CTAB
M  END

$$$$
