
     RDKit          3D

  0  0  0  0  0  0  0  0  0  0999 V3000
M  V30 BEGIN CTAB
M  V30 COUNTS 63 63 0 0 0
M  V30 BEGIN ATOM
M  V30 1 C -1.1198 -0.3285 -1.1965 0
M  V30 2 C -0.7746 -1.4121 -0.2879 0
M  V30 3 C -2.4466 -0.1077 -1.5679 0
M  V30 4 C -2.7777 0.9253 -2.4367 0
M  V30 5 H -3.2075 -0.7603 -1.1675 0
M  V30 6 C -1.7670 1.7464 -2.9382 0
M  V30 7 C -0.4407 1.5395 -2.5779 0
M  V30 8 H -2.0398 2.5421 -3.6145 0
M  V30 9 C -0.1247 0.4982 -1.7044 0
M  V30 10 C 0.6031 2.4031 -3.1103 0
M  V30 11 H 0.9102 0.3485 -1.4367 0
M  V30 12 C -4.1661 1.1427 -2.8161 0
M  V30 13 C -2.0184 -3.0065 2.4589 0
M  V30 14 C -1.2898 -3.2188 1.0980 0
M  V30 15 N -3.4547 -2.8740 2.2921 0
M  V30 16 C -1.7458 -4.2114 3.3600 0
M  V30 17 N -1.6503 -2.1855 0.1884 0
M  V30 18 H -2.2671 -4.0785 4.3037 0
M  V30 19 C -5.8712 2.2784 -3.9357 0
M  V30 20 C -6.3114 3.7065 -3.4946 0
M  V30 21 N -4.5033 2.0684 -3.6042 0
M  V30 22 H -5.9535 2.2190 -5.0268 0
M  V30 23 N -5.4352 4.7346 -4.0272 0
M  V30 24 C -7.7289 3.9678 -4.0051 0
M  V30 25 C 2.8151 3.1204 -3.3182 0
M  V30 26 C 3.5396 3.8433 -2.1434 0
M  V30 27 N 1.8174 2.2438 -2.8070 0
M  V30 28 H 3.5520 2.5023 -3.8433 0
M  V30 29 N 4.0582 2.9049 -1.1641 0
M  V30 30 C 2.5546 4.7720 -1.4307 0
M  V30 31 H 1.7023 4.2058 -1.0610 0
M  V30 32 H -3.8394 -3.7134 1.8715 0
M  V30 33 H -3.6499 -2.1005 1.6654 0
M  V30 34 H -5.4456 4.7153 -5.0416 0
M  V30 35 H -4.4833 4.5528 -3.7272 0
M  V30 36 H 0.2955 -1.5157 -0.0497 0
M  V30 37 H 0.2662 3.1962 -3.7959 0
M  V30 38 H -0.6815 -4.3139 3.5542 0
M  V30 39 H -2.1042 -5.1274 2.8947 0
M  V30 40 H -6.5417 1.5267 -3.4864 0
M  V30 41 H -7.7655 3.8948 -5.0902 0
M  V30 42 H -8.0345 4.9698 -3.7175 0
M  V30 43 H -8.4279 3.2496 -3.5848 0
M  V30 44 H 2.4103 3.8671 -4.0218 0
M  V30 45 H 2.1958 5.5435 -2.1074 0
M  V30 46 H 3.0498 5.2421 -0.5860 0
M  V30 47 C -6.2769 3.8022 -1.9680 0
M  V30 48 H -5.2777 3.5810 -1.5987 0
M  V30 49 H -6.9781 3.1008 -1.5231 0
M  V30 50 H -6.5420 4.8109 -1.6645 0
M  V30 51 H -1.6391 -4.1649 0.6693 0
M  V30 52 H -0.2015 -3.2834 1.2644 0
M  V30 53 C -1.5007 -1.7279 3.1205 0
M  V30 54 H -0.4387 -1.8103 3.3371 0
M  V30 55 H -2.0407 -1.5583 4.0476 0
M  V30 56 H -1.6598 -0.8734 2.4661 0
M  V30 57 H 4.7319 2.2813 -1.5962 0
M  V30 58 H 3.2973 2.3353 -0.8094 0
M  V30 59 C 4.7101 4.6510 -2.7053 0
M  V30 60 H 4.3573 5.4045 -3.4045 0
M  V30 61 H 5.4132 4.0000 -3.2209 0
M  V30 62 H 5.2317 5.1420 -1.8886 0
M  V30 63 H -4.8979 0.4468 -2.3771 0
M  V30 END ATOM
M  V30 BEGIN BOND
M  V30 1 1 1 2
M  V30 2 2 2 17
M  V30 3 1 3 5
M  V30 4 2 3 1
M  V30 5 1 4 3
M  V30 6 2 6 4
M  V30 7 1 6 7
M  V30 8 2 7 9
M  V30 9 1 8 6
M  V30 10 1 9 1
M  V30 11 1 9 11
M  V30 12 1 10 7
M  V30 13 2 10 27
M  V30 14 1 12 4
M  V30 15 1 12 63
M  V30 16 1 13 53
M  V30 17 1 13 15
M  V30 18 1 13 16
M  V30 19 1 14 13
M  V30 20 1 15 32
M  V30 21 1 16 39
M  V30 22 1 17 14
M  V30 23 1 18 16
M  V30 24 1 19 22
M  V30 25 1 19 21
M  V30 26 1 19 20
M  V30 27 1 20 23
M  V30 28 2 21 12
M  V30 29 1 23 35
M  V30 30 1 23 34
M  V30 31 1 24 42
M  V30 32 1 24 43
M  V30 33 1 24 20
M  V30 34 1 25 44
M  V30 35 1 25 28
M  V30 36 1 26 59
M  V30 37 1 26 25
M  V30 38 1 27 25
M  V30 39 1 29 26
M  V30 40 1 30 31
M  V30 41 1 30 26
M  V30 42 1 33 15
M  V30 43 1 36 2
M  V30 44 1 37 10
M  V30 45 1 38 16
M  V30 46 1 40 19
M  V30 47 1 41 24
M  V30 48 1 45 30
M  V30 49 1 46 30
M  V30 50 1 47 20
M  V30 51 1 47 50
M  V30 52 1 47 48
M  V30 53 1 49 47
M  V30 54 1 51 14
M  V30 55 1 52 14
M  V30 56 1 53 54
M  V30 57 1 55 53
M  V30 58 1 56 53
M  V30 59 1 57 29
M  V30 60 1 58 29
M  V30 61 1 59 60
M  V30 62 1 59 61
M  V30 63 1 62 59
M  V30 END BOND
M  V30 END CTAB
M  END

$$$$
