
     RDKit          3D

  0  0  0  0  0  0  0  0  0  0999 V3000
M  V30 BEGIN CTAB
M  V30 COUNTS 36 36 0 0 0
M  V30 BEGIN ATOM
M  V30 1 C -1.6077 0.8433 -1.2108 0
M  V30 2 C -2.1616 -0.0813 -0.2091 0
M  V30 3 C -2.4413 1.7354 -1.8783 0
M  V30 4 C -1.9183 2.6164 -2.8225 0
M  V30 5 H -3.5010 1.7646 -1.6759 0
M  V30 6 C -0.5510 2.5924 -3.0903 0
M  V30 7 C 0.2943 1.7019 -2.4319 0
M  V30 8 H -0.1399 3.2753 -3.8217 0
M  V30 9 C -0.2428 0.8280 -1.4903 0
M  V30 10 C 1.7220 1.6940 -2.7271 0
M  V30 11 H 0.4053 0.1352 -0.9764 0
M  V30 12 C -2.7838 3.5541 -3.5242 0
M  V30 13 O -1.5255 -0.8745 0.4339 0
M  V30 14 C -4.8581 4.4935 -4.0408 0
M  V30 15 C -5.8500 3.6872 -4.9142 0
M  V30 16 N -4.0273 3.5908 -3.3175 0
M  V30 17 N -6.7178 2.7970 -4.1810 0
M  V30 18 C 4.6781 1.2197 -1.1499 0
M  V30 19 C 3.9052 0.9170 -2.4395 0
M  V30 20 N 4.4656 2.6079 -0.7740 0
M  V30 21 N 2.5080 0.8918 -2.1558 0
M  V30 22 H -3.2590 0.0112 -0.0814 0
M  V30 23 H 4.9850 2.8279 0.0687 0
M  V30 24 H 3.4809 2.7607 -0.5782 0
M  V30 25 H -7.2793 3.3197 -3.5164 0
M  V30 26 H -6.1571 2.1361 -3.6535 0
M  V30 27 H 2.0635 2.4259 -3.4759 0
M  V30 28 H 4.3589 0.5001 -0.3800 0
M  V30 29 H 5.7464 1.0826 -1.3359 0
M  V30 30 H 4.1851 -0.0821 -2.7863 0
M  V30 31 H 4.1719 1.6621 -3.2055 0
M  V30 32 H -2.2850 4.2292 -4.2374 0
M  V30 33 H -5.2789 3.0861 -5.6274 0
M  V30 34 H -6.4696 4.3927 -5.4742 0
M  V30 35 H -5.4303 5.0725 -3.3079 0
M  V30 36 H -4.2857 5.1857 -4.6811 0
M  V30 END ATOM
M  V30 BEGIN BOND
M  V30 1 1 1 2
M  V30 2 2 2 13
M  V30 3 1 2 22
M  V30 4 1 3 5
M  V30 5 2 3 1
M  V30 6 1 4 3
M  V30 7 2 6 4
M  V30 8 1 6 7
M  V30 9 2 7 9
M  V30 10 1 8 6
M  V30 11 1 9 1
M  V30 12 1 9 11
M  V30 13 1 10 7
M  V30 14 2 10 21
M  V30 15 1 12 32
M  V30 16 1 12 4
M  V30 17 1 14 15
M  V30 18 1 14 16
M  V30 19 1 15 33
M  V30 20 2 16 12
M  V30 21 1 17 15
M  V30 22 1 17 26
M  V30 23 1 18 19
M  V30 24 1 18 29
M  V30 25 1 19 21
M  V30 26 1 19 31
M  V30 27 1 20 24
M  V30 28 1 20 18
M  V30 29 1 23 20
M  V30 30 1 25 17
M  V30 31 1 27 10
M  V30 32 1 28 18
M  V30 33 1 30 19
M  V30 34 1 34 15
M  V30 35 1 35 14
M  V30 36 1 36 14
M  V30 END BOND
M  V30 END CTAB
M  END

$$$$
