
     RDKit          3D

  0  0  0  0  0  0  0  0  0  0999 V3000
M  V30 BEGIN CTAB
M  V30 COUNTS 36 38 0 0 0
M  V30 BEGIN ATOM
M  V30 1 C -1.2081 1.2297 -0.1228 0
M  V30 2 C -1.0556 0.6211 1.2033 0
M  V30 3 C -2.4766 1.4984 -0.6334 0
M  V30 4 C -2.6146 2.0807 -1.8830 0
M  V30 5 H -3.3560 1.2484 -0.0576 0
M  V30 6 C -1.4808 2.3881 -2.6243 0
M  V30 7 C -0.2111 2.1285 -2.1253 0
M  V30 8 H -1.6062 2.8430 -3.5951 0
M  V30 9 C -0.0782 1.5507 -0.8741 0
M  V30 10 C 1.0191 2.5068 -2.9094 0
M  V30 11 H 0.9004 1.3279 -0.4768 0
M  V30 12 C -3.9923 2.3251 -2.4453 0
M  V30 13 O -0.0081 0.3869 1.7505 0
M  V30 14 C -5.5878 1.5264 -3.8781 0
M  V30 15 C -4.9697 2.7665 -4.5570 0
M  V30 16 N -4.5833 1.0850 -2.9242 0
M  V30 17 H -5.8459 0.7335 -4.5769 0
M  V30 18 N -3.9713 3.2368 -3.5993 0
M  V30 19 H -5.7208 3.5229 -4.7941 0
M  V30 20 C 3.3462 2.2493 -2.5312 0
M  V30 21 C 2.9623 3.7196 -2.7884 0
M  V30 22 N 2.0961 1.5176 -2.7197 0
M  V30 23 H 3.6755 2.1176 -1.4934 0
M  V30 24 N 1.5473 3.7867 -2.4604 0
M  V30 25 H 3.0732 3.9609 -3.8504 0
M  V30 26 H 2.1383 0.8664 -3.4915 0
M  V30 27 H 0.7566 2.6157 -3.9762 0
M  V30 28 H 1.4349 3.8507 -1.4519 0
M  V30 29 H -3.8667 0.5472 -3.4049 0
M  V30 30 H -4.1160 4.1968 -3.3175 0
M  V30 31 H -4.6488 2.7062 -1.6406 0
M  V30 32 H -2.0206 0.3830 1.6956 0
M  V30 33 H -4.4578 2.4838 -5.4847 0
M  V30 34 H 4.1404 1.9011 -3.1931 0
M  V30 35 H -6.4823 1.8097 -3.3146 0
M  V30 36 H 3.5392 4.4302 -2.2002 0
M  V30 END ATOM
M  V30 BEGIN BOND
M  V30 1 1 1 2
M  V30 2 1 2 32
M  V30 3 2 2 13
M  V30 4 1 3 1
M  V30 5 1 3 5
M  V30 6 2 4 3
M  V30 7 2 6 7
M  V30 8 1 6 4
M  V30 9 1 7 9
M  V30 10 1 8 6
M  V30 11 1 9 11
M  V30 12 2 9 1
M  V30 13 1 10 24
M  V30 14 1 10 7
M  V30 15 1 12 4
M  V30 16 1 12 31
M  V30 17 1 14 15
M  V30 18 1 14 16
M  V30 19 1 15 19
M  V30 20 1 15 18
M  V30 21 1 16 12
M  V30 22 1 17 14
M  V30 23 1 18 12
M  V30 24 1 18 30
M  V30 25 1 20 23
M  V30 26 1 21 20
M  V30 27 1 21 24
M  V30 28 1 21 36
M  V30 29 1 22 10
M  V30 30 1 22 20
M  V30 31 1 24 28
M  V30 32 1 25 21
M  V30 33 1 26 22
M  V30 34 1 27 10
M  V30 35 1 29 16
M  V30 36 1 33 15
M  V30 37 1 34 20
M  V30 38 1 35 14
M  V30 END BOND
M  V30 END CTAB
M  END

$$$$
