
 OpenBabel02282015583D

 75 78  0  0  1  0  0  0  0  0999 V2000
   -0.7504   -0.2428   -1.5245 C   0  0  0  0  0  0  0  0  0  0  0  0
   -0.5982   -1.6480   -1.0291 C   0  0  0  0  0  0  0  0  0  0  0  0
   -1.9964    0.3564   -1.7966 C   0  0  0  0  0  0  0  0  0  0  0  0
   -2.0714    1.6766   -2.2728 C   0  0  0  0  0  0  0  0  0  0  0  0
   -2.9097   -0.1977   -1.6748 H   0  0  0  0  0  0  0  0  0  0  0  0
   -0.8930    2.4024   -2.4845 C   0  0  0  0  0  0  0  0  0  0  0  0
    0.3560    1.8134   -2.2519 C   0  0  0  0  0  0  0  0  0  0  0  0
   -0.9473    3.4210   -2.8518 H   0  0  0  0  0  0  0  0  0  0  0  0
    0.4203    0.4891   -1.7839 C   0  0  0  0  0  0  0  0  0  0  0  0
    1.5854    2.5964   -2.5090 C   0  0  0  0  0  0  0  0  0  0  0  0
    1.3846    0.0292   -1.6012 H   0  0  0  0  0  0  0  0  0  0  0  0
   -3.3778    2.3065   -2.5713 C   0  0  0  0  0  0  0  0  0  0  0  0
   -2.5403   -2.1853    1.8936 C   0  0  1  0  0  0  0  0  0  0  0  0
   -2.6242   -1.8221    0.3922 C   0  0  1  0  0  0  0  0  0  0  0  0
   -1.3567   -1.5700    2.4992 N   0  0  0  0  0  0  0  0  0  0  0  0
   -2.4477   -3.2914    1.9897 H   0  0  0  0  0  0  0  0  0  0  0  0
   -3.8227   -1.7310    2.6250 C   0  0  0  0  0  0  0  0  0  0  0  0
   -1.4276   -2.3064   -0.2770 N   0  0  0  0  0  0  0  0  0  0  0  0
   -2.7058   -0.7207    0.3535 H   0  0  0  0  0  0  0  0  0  0  0  0
   -3.8717   -2.4777   -0.2321 C   0  0  0  0  0  0  0  0  0  0  0  0
   -5.0607   -2.3725    1.9851 C   0  0  0  0  0  0  0  0  0  0  0  0
   -5.1409   -2.0134    0.4957 C   0  0  0  0  0  0  0  0  0  0  0  0
   -5.7756    2.1997   -2.7511 C   0  0  1  0  0  0  0  0  0  0  0  0
   -6.7004    2.0656   -1.5155 C   0  0  1  0  0  0  0  0  0  0  0  0
   -4.4725    1.6342   -2.4594 N   0  0  0  0  0  0  0  0  0  0  0  0
   -5.6898    3.2789   -3.0210 H   0  0  0  0  0  0  0  0  0  0  0  0
   -6.3823    1.4495   -3.9505 C   0  0  0  0  0  0  0  0  0  0  0  0
   -6.1523    2.8089   -0.3788 N   0  0  0  0  0  0  0  0  0  0  0  0
   -6.7868    0.9887   -1.2386 H   0  0  0  0  0  0  0  0  0  0  0  0
   -8.1065    2.6028   -1.8562 C   0  0  0  0  0  0  0  0  0  0  0  0
   -7.7793    1.9918   -4.2764 C   0  0  0  0  0  0  0  0  0  0  0  0
   -8.6984    1.8534   -3.0574 C   0  0  0  0  0  0  0  0  0  0  0  0
    3.9876    2.7882   -2.5933 C   0  0  1  0  0  0  0  0  0  0  0  0
    4.3234    2.8897   -4.1148 C   0  0  1  0  0  0  0  0  0  0  0  0
    2.7506    2.0702   -2.3442 N   0  0  0  0  0  0  0  0  0  0  0  0
    3.9175    3.8083   -2.1491 H   0  0  0  0  0  0  0  0  0  0  0  0
    5.1196    2.0367   -1.8669 C   0  0  0  0  0  0  0  0  0  0  0  0
    3.2942    3.6287   -4.8518 N   0  0  0  0  0  0  0  0  0  0  0  0
    4.4040    1.8633   -4.5425 H   0  0  0  0  0  0  0  0  0  0  0  0
    5.6841    3.5993   -4.2947 C   0  0  0  0  0  0  0  0  0  0  0  0
    6.4644    2.7454   -2.0633 C   0  0  0  0  0  0  0  0  0  0  0  0
    6.7955    2.8470   -3.5544 C   0  0  0  0  0  0  0  0  0  0  0  0
    2.4322    3.0436   -4.9200 H   0  0  0  0  0  0  0  0  0  0  0  0
    3.6075    3.7685   -5.8399 H   0  0  0  0  0  0  0  0  0  0  0  0
   -1.2854   -1.8605    3.5015 H   0  0  0  0  0  0  0  0  0  0  0  0
   -1.4307   -0.5270    2.4599 H   0  0  0  0  0  0  0  0  0  0  0  0
   -5.2307    2.3983   -0.1042 H   0  0  0  0  0  0  0  0  0  0  0  0
   -6.7881    2.6943    0.4440 H   0  0  0  0  0  0  0  0  0  0  0  0
    0.3282   -2.1510   -1.2885 H   0  0  0  0  0  0  0  0  0  0  0  0
    1.4947    3.6289   -2.8383 H   0  0  0  0  0  0  0  0  0  0  0  0
   -9.7016    2.2658   -3.2984 H   0  0  0  0  0  0  0  0  0  0  0  0
   -8.8169    0.7771   -2.8019 H   0  0  0  0  0  0  0  0  0  0  0  0
   -8.2079    1.4303   -5.1340 H   0  0  0  0  0  0  0  0  0  0  0  0
   -7.7036    3.0634   -4.5656 H   0  0  0  0  0  0  0  0  0  0  0  0
   -5.7255    1.5701   -4.8394 H   0  0  0  0  0  0  0  0  0  0  0  0
   -6.4546    0.3636   -3.7170 H   0  0  0  0  0  0  0  0  0  0  0  0
   -8.7823    2.4793   -0.9824 H   0  0  0  0  0  0  0  0  0  0  0  0
   -8.0434    3.6877   -2.0958 H   0  0  0  0  0  0  0  0  0  0  0  0
   -3.4015    3.3395   -2.9112 H   0  0  0  0  0  0  0  0  0  0  0  0
    7.2654    2.1787   -1.5418 H   0  0  0  0  0  0  0  0  0  0  0  0
    6.4150    3.7651   -1.6216 H   0  0  0  0  0  0  0  0  0  0  0  0
    4.8951    1.9813   -0.7793 H   0  0  0  0  0  0  0  0  0  0  0  0
    5.1908    0.9971   -2.2586 H   0  0  0  0  0  0  0  0  0  0  0  0
    7.7611    3.3806   -3.6865 H   0  0  0  0  0  0  0  0  0  0  0  0
    6.9006    1.8258   -3.9833 H   0  0  0  0  0  0  0  0  0  0  0  0
    5.9463    3.6508   -5.3738 H   0  0  0  0  0  0  0  0  0  0  0  0
    5.6174    4.6392   -3.9039 H   0  0  0  0  0  0  0  0  0  0  0  0
   -6.0306   -2.5011    0.0434 H   0  0  0  0  0  0  0  0  0  0  0  0
   -5.2527   -0.9121    0.3813 H   0  0  0  0  0  0  0  0  0  0  0  0
   -5.9763   -2.0192    2.5060 H   0  0  0  0  0  0  0  0  0  0  0  0
   -5.0025   -3.4779    2.0956 H   0  0  0  0  0  0  0  0  0  0  0  0
   -3.9150   -0.6235    2.5693 H   0  0  0  0  0  0  0  0  0  0  0  0
   -3.7720   -2.0218    3.6965 H   0  0  0  0  0  0  0  0  0  0  0  0
   -3.7895   -3.5852   -0.1593 H   0  0  0  0  0  0  0  0  0  0  0  0
   -3.9500   -2.2141   -1.3075 H   0  0  0  0  0  0  0  0  0  0  0  0
  1  2  1  0  0  0  0
  2 18  2  0  0  0  0
  3  5  1  0  0  0  0
  3  1  2  0  0  0  0
  4  3  1  0  0  0  0
  6  4  2  0  0  0  0
  6  7  1  0  0  0  0
  7  9  2  0  0  0  0
  8  6  1  0  0  0  0
  9 11  1  0  0  0  0
  9  1  1  0  0  0  0
 10 35  2  0  0  0  0
 10  7  1  0  0  0  0
 12 25  2  0  0  0  0
 12  4  1  0  0  0  0
 13 16  1  1  0  0  0
 13 15  1  0  0  0  0
 13 17  1  0  0  0  0
 14 19  1  6  0  0  0
 14 13  1  0  0  0  0
 15 45  1  0  0  0  0
 17 73  1  0  0  0  0
 18 14  1  0  0  0  0
 20 74  1  0  0  0  0
 20 14  1  0  0  0  0
 20 22  1  0  0  0  0
 21 71  1  0  0  0  0
 21 70  1  0  0  0  0
 21 17  1  0  0  0  0
 22 21  1  0  0  0  0
 23 26  1  6  0  0  0
 23 25  1  0  0  0  0
 23 24  1  0  0  0  0
 24 29  1  1  0  0  0
 24 28  1  0  0  0  0
 27 56  1  0  0  0  0
 27 23  1  0  0  0  0
 28 47  1  0  0  0  0
 28 48  1  0  0  0  0
 30 24  1  0  0  0  0
 30 57  1  0  0  0  0
 31 27  1  0  0  0  0
 31 32  1  0  0  0  0
 32 52  1  0  0  0  0
 32 30  1  0  0  0  0
 33 35  1  0  0  0  0
 33 36  1  1  0  0  0
 33 37  1  0  0  0  0
 34 39  1  6  0  0  0
 34 33  1  0  0  0  0
 37 62  1  0  0  0  0
 38 34  1  0  0  0  0
 40 34  1  0  0  0  0
 40 67  1  0  0  0  0
 40 42  1  0  0  0  0
 41 37  1  0  0  0  0
 41 61  1  0  0  0  0
 41 60  1  0  0  0  0
 42 41  1  0  0  0  0
 43 38  1  0  0  0  0
 44 38  1  0  0  0  0
 46 15  1  0  0  0  0
 49  2  1  0  0  0  0
 50 10  1  0  0  0  0
 51 32  1  0  0  0  0
 53 31  1  0  0  0  0
 54 31  1  0  0  0  0
 55 27  1  0  0  0  0
 58 30  1  0  0  0  0
 59 12  1  0  0  0  0
 63 37  1  0  0  0  0
 64 42  1  0  0  0  0
 65 42  1  0  0  0  0
 66 40  1  0  0  0  0
 68 22  1  0  0  0  0
 69 22  1  0  0  0  0
 72 17  1  0  0  0  0
 75 20  1  0  0  0  0
M  END
