99

C -2.170900 -0.941200 -1.247000
C -2.772300 -1.971400 -0.377200
C -2.960000 -0.285400 -2.182000
C -2.424600 0.727900 -2.979100
H -4.004700 -0.531300 -2.296700
C -1.086300 1.075800 -2.833800
C -0.277700 0.404400 -1.919400
H -0.651400 1.862800 -3.431300
C -0.823000 -0.608300 -1.133900
C 1.123700 0.755200 -1.748800
H -0.201500 -1.146100 -0.430400
C -3.259100 1.416100 -3.954300
C -0.861600 -1.801900 2.401400
C -2.064300 -1.111200 1.713500
N -0.052900 -2.448500 1.368400
H -1.272000 -2.545200 3.104800
C 0.014500 -0.819600 3.204800
N -2.723000 -2.078700 0.876200
H -1.683200 -0.258400 1.133500
C -3.122300 -0.567100 2.700800
H -0.648700 -0.227800 3.842400
C 0.802700 0.130000 2.304900
C 0.973300 -1.578300 4.125100
H -2.624800 0.133800 3.378300
C -3.783500 -1.672600 3.519400
C -4.181900 0.210000 1.918700
H 1.489300 -0.881000 4.781300
H 1.726500 -2.114600 3.551700
H 0.433400 -2.292200 4.744200
H 1.440400 0.770700 2.910000
H 0.138200 0.764400 1.724300
H 1.427000 -0.436800 1.620100
H -4.732400 -0.460600 1.263000
H -3.721500 0.986200 1.309900
H -4.885600 0.680700 2.601600
H -3.087400 -2.105900 4.232700
H -4.140100 -2.455400 2.856200
H -4.626800 -1.268500 4.074900
C -5.272800 1.800800 -5.084100
C -6.390000 2.519700 -4.290300
N -4.470100 1.108200 -4.121500
H -4.686300 2.577200 -5.606800
C -5.769600 0.773500 -6.123000
N -5.743100 3.571600 -3.511600
H -6.861500 1.760300 -3.641400
C -7.488600 3.141800 -5.173400
H -6.402100 1.298700 -6.844400
C -6.568900 -0.353300 -5.474800
C -4.573500 0.198100 -6.882000
H -7.929000 2.341900 -5.775800
C -6.927100 4.219400 -6.096700
C -8.608400 3.726500 -4.309300
H -4.913700 -0.473400 -7.667100
H -3.928300 -0.359300 -6.206400
H -3.988700 0.993300 -7.340500
H -6.817700 -1.108500 -6.217500
H -7.494200 0.018700 -5.043400
H -5.978700 -0.815200 -4.688500
H -8.948800 3.001500 -3.572000
H -9.455800 3.998600 -4.934800
H -8.272300 4.622200 -3.793000
H -6.275200 3.787800 -6.851300
H -6.355300 4.934700 -5.512500
H -7.737300 4.739800 -6.602500
C 2.999300 2.105500 -2.049200
C 3.018400 3.380000 -1.138100
N 1.635300 1.765100 -2.303300
H 3.508400 1.290500 -1.505100
C 3.756900 2.292000 -3.380300
N 1.897700 4.273300 -1.368700
H 3.933400 3.944200 -1.355000
C 3.036000 2.982900 0.353800
H 4.782000 2.587400 -3.127200
C 3.139200 3.360400 -4.277900
C 3.807000 0.955800 -4.122200
H 2.227900 2.260400 0.520700
C 2.782100 4.205900 1.234400
C 4.365100 2.351700 0.765300
H 2.801200 0.640700 -4.392000
H 4.254400 0.183500 -3.499100
H 4.397700 1.047300 -5.030800
H 3.608700 3.335400 -5.259400
H 3.286800 4.355200 -3.864300
H 2.075400 3.172700 -4.398000
H 5.180600 3.051400 0.594600
H 4.579200 1.439500 0.214200
H 4.343100 2.103800 1.824300
H 3.578900 4.933000 1.098800
H 2.752500 3.912600 2.281500
H 1.842600 4.679700 0.971900
H 1.030900 3.763100 -1.227400
H 1.895200 4.592400 -2.329200
H -0.618500 -3.147500 0.896400
H 0.725900 -2.932700 1.802400
H -6.404400 3.976800 -2.859100
H -4.984200 3.175600 -2.967000
H -3.361800 -2.729200 -0.890700
H -2.766100 2.215300 -4.529900
H 1.701700 0.088100 -1.089400
