36

C -1.607700 0.843300 -1.210800
C -2.161600 -0.081300 -0.209100
C -2.441300 1.735400 -1.878300
C -1.918300 2.616400 -2.822500
H -3.501000 1.764600 -1.675900
C -0.551000 2.592400 -3.090300
C 0.294300 1.701900 -2.431900
H -0.139900 3.275300 -3.821700
C -0.242800 0.828000 -1.490300
C 1.722000 1.694000 -2.727100
H 0.405300 0.135200 -0.976400
C -2.783800 3.554100 -3.524200
O -1.525500 -0.874500 0.433900
C -4.858100 4.493500 -4.040800
C -5.850000 3.687200 -4.914200
N -4.027300 3.590800 -3.317500
N -6.717800 2.797000 -4.181000
C 4.678100 1.219700 -1.149900
C 3.905200 0.917000 -2.439500
N 4.465600 2.607900 -0.774000
N 2.508000 0.891800 -2.155800
H -3.259000 0.011200 -0.081400
H 4.985000 2.827900 0.068700
H 3.480900 2.760700 -0.578200
H -7.279300 3.319700 -3.516400
H -6.157100 2.136100 -3.653500
H 2.063500 2.425900 -3.475900
H 4.358900 0.500100 -0.380000
H 5.746400 1.082600 -1.335900
H 4.185100 -0.082100 -2.786300
H 4.171900 1.662100 -3.205500
H -2.285000 4.229200 -4.237400
H -5.278900 3.086100 -5.627400
H -6.469600 4.392700 -5.474200
H -5.430300 5.072500 -3.307900
H -4.285700 5.185700 -4.681100
