
     RDKit          3D

  0  0  0  0  0  0  0  0  0  0999 V3000
M  V30 BEGIN CTAB
M  V30 COUNTS 99 99 0 0 0
M  V30 BEGIN ATOM
M  V30 1 C -2.1709 -0.9412 -1.2470 0
M  V30 2 C -2.7723 -1.9714 -0.3772 0
M  V30 3 C -2.9600 -0.2854 -2.1820 0
M  V30 4 C -2.4246 0.7279 -2.9791 0
M  V30 5 H -4.0047 -0.5313 -2.2967 0
M  V30 6 C -1.0863 1.0758 -2.8338 0
M  V30 7 C -0.2777 0.4044 -1.9194 0
M  V30 8 H -0.6514 1.8628 -3.4313 0
M  V30 9 C -0.8230 -0.6083 -1.1339 0
M  V30 10 C 1.1237 0.7552 -1.7488 0
M  V30 11 H -0.2015 -1.1461 -0.4304 0
M  V30 12 C -3.2591 1.4161 -3.9543 0
M  V30 13 C -0.8616 -1.8019 2.4014 0
M  V30 14 C -2.0643 -1.1112 1.7135 0
M  V30 15 N -0.0529 -2.4485 1.3684 0
M  V30 16 H -1.2720 -2.5452 3.1048 0
M  V30 17 C 0.0145 -0.8196 3.2048 0
M  V30 18 N -2.7230 -2.0787 0.8762 0
M  V30 19 H -1.6832 -0.2584 1.1335 0
M  V30 20 C -3.1223 -0.5671 2.7008 0
M  V30 21 H -0.6487 -0.2278 3.8424 0
M  V30 22 C 0.8027 0.1300 2.3049 0
M  V30 23 C 0.9733 -1.5783 4.1251 0
M  V30 24 H -2.6248 0.1338 3.3783 0
M  V30 25 C -3.7835 -1.6726 3.5194 0
M  V30 26 C -4.1819 0.2100 1.9187 0
M  V30 27 H 1.4893 -0.8810 4.7813 0
M  V30 28 H 1.7265 -2.1146 3.5517 0
M  V30 29 H 0.4334 -2.2922 4.7442 0
M  V30 30 H 1.4404 0.7707 2.9100 0
M  V30 31 H 0.1382 0.7644 1.7243 0
M  V30 32 H 1.4270 -0.4368 1.6201 0
M  V30 33 H -4.7324 -0.4606 1.2630 0
M  V30 34 H -3.7215 0.9862 1.3099 0
M  V30 35 H -4.8856 0.6807 2.6016 0
M  V30 36 H -3.0874 -2.1059 4.2327 0
M  V30 37 H -4.1401 -2.4554 2.8562 0
M  V30 38 H -4.6268 -1.2685 4.0749 0
M  V30 39 C -5.2728 1.8008 -5.0841 0
M  V30 40 C -6.3900 2.5197 -4.2903 0
M  V30 41 N -4.4701 1.1082 -4.1215 0
M  V30 42 H -4.6863 2.5772 -5.6068 0
M  V30 43 C -5.7696 0.7735 -6.1230 0
M  V30 44 N -5.7431 3.5716 -3.5116 0
M  V30 45 H -6.8615 1.7603 -3.6414 0
M  V30 46 C -7.4886 3.1418 -5.1734 0
M  V30 47 H -6.4021 1.2987 -6.8444 0
M  V30 48 C -6.5689 -0.3533 -5.4748 0
M  V30 49 C -4.5735 0.1981 -6.8820 0
M  V30 50 H -7.9290 2.3419 -5.7758 0
M  V30 51 C -6.9271 4.2194 -6.0967 0
M  V30 52 C -8.6084 3.7265 -4.3093 0
M  V30 53 H -4.9137 -0.4734 -7.6671 0
M  V30 54 H -3.9283 -0.3593 -6.2064 0
M  V30 55 H -3.9887 0.9933 -7.3405 0
M  V30 56 H -6.8177 -1.1085 -6.2175 0
M  V30 57 H -7.4942 0.0187 -5.0434 0
M  V30 58 H -5.9787 -0.8152 -4.6885 0
M  V30 59 H -8.9488 3.0015 -3.5720 0
M  V30 60 H -9.4558 3.9986 -4.9348 0
M  V30 61 H -8.2723 4.6222 -3.7930 0
M  V30 62 H -6.2752 3.7878 -6.8513 0
M  V30 63 H -6.3553 4.9347 -5.5125 0
M  V30 64 H -7.7373 4.7398 -6.6025 0
M  V30 65 C 2.9993 2.1055 -2.0492 0
M  V30 66 C 3.0184 3.3800 -1.1381 0
M  V30 67 N 1.6353 1.7651 -2.3033 0
M  V30 68 H 3.5084 1.2905 -1.5051 0
M  V30 69 C 3.7569 2.2920 -3.3803 0
M  V30 70 N 1.8977 4.2733 -1.3687 0
M  V30 71 H 3.9334 3.9442 -1.3550 0
M  V30 72 C 3.0360 2.9829 0.3538 0
M  V30 73 H 4.7820 2.5874 -3.1272 0
M  V30 74 C 3.1392 3.3604 -4.2779 0
M  V30 75 C 3.8070 0.9558 -4.1222 0
M  V30 76 H 2.2279 2.2604 0.5207 0
M  V30 77 C 2.7821 4.2059 1.2344 0
M  V30 78 C 4.3651 2.3517 0.7653 0
M  V30 79 H 2.8012 0.6407 -4.3920 0
M  V30 80 H 4.2544 0.1835 -3.4991 0
M  V30 81 H 4.3977 1.0473 -5.0308 0
M  V30 82 H 3.6087 3.3354 -5.2594 0
M  V30 83 H 3.2868 4.3552 -3.8643 0
M  V30 84 H 2.0754 3.1727 -4.3980 0
M  V30 85 H 5.1806 3.0514 0.5946 0
M  V30 86 H 4.5792 1.4395 0.2142 0
M  V30 87 H 4.3431 2.1038 1.8243 0
M  V30 88 H 3.5789 4.9330 1.0988 0
M  V30 89 H 2.7525 3.9126 2.2815 0
M  V30 90 H 1.8426 4.6797 0.9719 0
M  V30 91 H 1.0309 3.7631 -1.2274 0
M  V30 92 H 1.8952 4.5924 -2.3292 0
M  V30 93 H -0.6185 -3.1475 0.8964 0
M  V30 94 H 0.7259 -2.9327 1.8024 0
M  V30 95 H -6.4044 3.9768 -2.8591 0
M  V30 96 H -4.9842 3.1756 -2.9670 0
M  V30 97 H -3.3618 -2.7292 -0.8907 0
M  V30 98 H -2.7661 2.2153 -4.5299 0
M  V30 99 H 1.7017 0.0881 -1.0894 0
M  V30 END ATOM
M  V30 BEGIN BOND
M  V30 1 1 1 2
M  V30 2 2 2 18
M  V30 3 1 2 97
M  V30 4 1 3 1
M  V30 5 1 3 5
M  V30 6 2 4 3
M  V30 7 2 6 7
M  V30 8 1 6 4
M  V30 9 1 7 9
M  V30 10 1 8 6
M  V30 11 1 9 11
M  V30 12 2 9 1
M  V30 13 1 10 7
M  V30 14 1 10 99
M  V30 15 1 12 4
M  V30 16 1 12 98
M  V30 17 1 13 16
M  V30 18 1 13 17
M  V30 19 1 14 19
M  V30 20 1 14 20
M  V30 21 1 14 13
M  V30 22 1 15 13
M  V30 23 1 15 93
M  V30 24 1 15 94
M  V30 25 1 17 22
M  V30 26 1 17 23
M  V30 27 1 18 14
M  V30 28 1 20 24
M  V30 29 1 20 26
M  V30 30 1 21 17
M  V30 31 1 22 31
M  V30 32 1 22 32
M  V30 33 1 23 29
M  V30 34 1 23 28
M  V30 35 1 25 38
M  V30 36 1 25 20
M  V30 37 1 26 34
M  V30 38 1 26 33
M  V30 39 1 27 23
M  V30 40 1 30 22
M  V30 41 1 35 26
M  V30 42 1 36 25
M  V30 43 1 37 25
M  V30 44 1 39 42
M  V30 45 1 39 40
M  V30 46 1 39 41
M  V30 47 1 40 45
M  V30 48 1 40 44
M  V30 49 2 41 12
M  V30 50 1 43 48
M  V30 51 1 43 47
M  V30 52 1 43 39
M  V30 53 1 44 95
M  V30 54 1 44 96
M  V30 55 1 46 51
M  V30 56 1 46 40
M  V30 57 1 48 56
M  V30 58 1 49 43
M  V30 59 1 50 46
M  V30 60 1 51 62
M  V30 61 1 51 63
M  V30 62 1 52 46
M  V30 63 1 52 61
M  V30 64 1 53 49
M  V30 65 1 54 49
M  V30 66 1 55 49
M  V30 67 1 57 48
M  V30 68 1 58 48
M  V30 69 1 59 52
M  V30 70 1 60 52
M  V30 71 1 64 51
M  V30 72 1 65 68
M  V30 73 1 66 71
M  V30 74 1 66 65
M  V30 75 1 66 70
M  V30 76 1 66 72
M  V30 77 2 67 10
M  V30 78 1 67 65
M  V30 79 1 69 65
M  V30 80 1 69 75
M  V30 81 1 70 91
M  V30 82 1 70 92
M  V30 83 1 72 77
M  V30 84 1 72 76
M  V30 85 1 73 69
M  V30 86 1 74 69
M  V30 87 1 74 83
M  V30 88 1 75 79
M  V30 89 1 75 81
M  V30 90 1 77 90
M  V30 91 1 77 88
M  V30 92 1 78 86
M  V30 93 1 78 72
M  V30 94 1 80 75
M  V30 95 1 82 74
M  V30 96 1 84 74
M  V30 97 1 85 78
M  V30 98 1 87 78
M  V30 99 1 89 77
M  V30 END BOND
M  V30 END CTAB
M  END

$$$$
