
 OpenBabel02282016023D

 48 50  0  0  1  0  0  0  0  0999 V2000
   -1.3738    1.0198    0.0854 C   0  0  0  0  0  0  0  0  0  0  0  0
   -1.2156    0.4591    1.4418 C   0  0  0  0  0  0  0  0  0  0  0  0
   -2.6401    1.1836   -0.5044 C   0  0  0  0  0  0  0  0  0  0  0  0
   -2.7651    1.7553   -1.7812 C   0  0  0  0  0  0  0  0  0  0  0  0
   -3.5284    0.8703    0.0311 H   0  0  0  0  0  0  0  0  0  0  0  0
   -1.6018    2.2082   -2.4406 C   0  0  0  0  0  0  0  0  0  0  0  0
   -0.3310    2.0756   -1.8421 C   0  0  0  0  0  0  0  0  0  0  0  0
   -1.6946    2.6936   -3.4055 H   0  0  0  0  0  0  0  0  0  0  0  0
   -0.2266    1.4414   -0.5973 C   0  0  0  0  0  0  0  0  0  0  0  0
    0.8877    2.7130   -2.4956 C   0  0  2  0  0  0  0  0  0  0  0  0
    0.7329    1.3202   -0.1196 H   0  0  0  0  0  0  0  0  0  0  0  0
   -4.1393    1.9574   -2.4152 C   0  0  2  0  0  0  0  0  0  0  0  0
   -2.1907    0.1421    2.1079 O   0  0  0  0  0  0  0  0  0  0  0  0
   -5.3198    1.8689   -4.4163 C   0  0  0  0  0  0  0  0  0  0  0  0
   -5.0563    3.3423   -4.0678 C   0  0  0  0  0  0  0  0  0  0  0  0
   -4.3726    1.0987   -3.5895 N   0  0  0  0  0  0  0  0  0  0  0  0
   -5.1099    1.5862   -5.9265 C   0  0  0  0  0  0  0  0  0  0  0  0
   -4.2655    3.3474   -2.8458 N   0  0  0  0  0  0  0  0  0  0  0  0
   -5.9995    3.9248   -3.9462 H   0  0  0  0  0  0  0  0  0  0  0  0
   -5.5450    0.6056   -6.2185 H   0  0  0  0  0  0  0  0  0  0  0  0
    3.0779    2.4009   -3.1436 C   0  0  0  0  0  0  0  0  0  0  0  0
    2.9315    3.7147   -2.3422 C   0  0  0  0  0  0  0  0  0  0  0  0
    1.7553    1.7766   -3.2029 N   0  0  0  0  0  0  0  0  0  0  0  0
    3.6786    1.6822   -2.5417 H   0  0  0  0  0  0  0  0  0  0  0  0
    1.7321    3.4778   -1.5443 N   0  0  0  0  0  0  0  0  0  0  0  0
    4.2167    3.9413   -1.5093 C   0  0  0  0  0  0  0  0  0  0  0  0
    4.3861    3.1130   -0.7891 H   0  0  0  0  0  0  0  0  0  0  0  0
    1.4425    1.6558   -4.1951 H   0  0  0  0  0  0  0  0  0  0  0  0
    0.4852    3.4105   -3.2618 H   0  0  0  0  0  0  0  0  0  0  0  0
    2.0206    2.8559   -0.7562 H   0  0  0  0  0  0  0  0  0  0  0  0
   -3.4660    1.0030   -4.1014 H   0  0  0  0  0  0  0  0  0  0  0  0
   -4.6449    3.9732   -2.0994 H   0  0  0  0  0  0  0  0  0  0  0  0
   -4.9436    1.7292   -1.6780 H   0  0  0  0  0  0  0  0  0  0  0  0
   -0.2243    0.3663    1.8754 H   0  0  0  0  0  0  0  0  0  0  0  0
   -4.4498    3.8446   -4.8495 H   0  0  0  0  0  0  0  0  0  0  0  0
   -5.5843    2.3757   -6.5470 H   0  0  0  0  0  0  0  0  0  0  0  0
   -4.0296    1.5611   -6.1860 H   0  0  0  0  0  0  0  0  0  0  0  0
    3.5947    2.5082   -4.1220 H   0  0  0  0  0  0  0  0  0  0  0  0
    4.1873    4.8957   -0.9439 H   0  0  0  0  0  0  0  0  0  0  0  0
    5.0933    3.9733   -2.1964 H   0  0  0  0  0  0  0  0  0  0  0  0
    2.6873    5.0146   -3.1524 C   0  0  0  0  0  0  0  0  0  0  0  0
    1.7731    5.0082   -3.7734 H   0  0  0  0  0  0  0  0  0  0  0  0
    3.5475    5.2731   -3.7991 H   0  0  0  0  0  0  0  0  0  0  0  0
    2.5475    5.8483   -2.4222 H   0  0  0  0  0  0  0  0  0  0  0  0
   -6.7791    1.5022   -4.0568 C   0  0  0  0  0  0  0  0  0  0  0  0
   -7.4861    2.0947   -4.6819 H   0  0  0  0  0  0  0  0  0  0  0  0
   -7.0087    1.7037   -2.9908 H   0  0  0  0  0  0  0  0  0  0  0  0
   -6.9741    0.4266   -4.2598 H   0  0  0  0  0  0  0  0  0  0  0  0
  1  2  1  0  0  0  0
  2 34  1  0  0  0  0
  2 13  2  0  0  0  0
  3  5  1  0  0  0  0
  3  1  1  0  0  0  0
  4  3  2  0  0  0  0
  6  7  2  0  0  0  0
  6  4  1  0  0  0  0
  7  9  1  0  0  0  0
  8  6  1  0  0  0  0
  9 11  1  0  0  0  0
  9  1  2  0  0  0  0
 10 29  1  6  0  0  0
 10  7  1  0  0  0  0
 10 25  1  0  0  0  0
 12  4  1  0  0  0  0
 12 33  1  1  0  0  0
 14 15  1  0  0  0  0
 14 45  1  0  0  0  0
 14 16  1  0  0  0  0
 15 19  1  0  0  0  0
 15 18  1  0  0  0  0
 16 12  1  0  0  0  0
 17 14  1  0  0  0  0
 18 12  1  0  0  0  0
 18 32  1  0  0  0  0
 20 17  1  0  0  0  0
 21 24  1  0  0  0  0
 21 22  1  0  0  0  0
 22 25  1  0  0  0  0
 22 26  1  0  0  0  0
 23 21  1  0  0  0  0
 23 10  1  0  0  0  0
 25 30  1  0  0  0  0
 26 39  1  0  0  0  0
 26 27  1  0  0  0  0
 28 23  1  0  0  0  0
 31 16  1  0  0  0  0
 35 15  1  0  0  0  0
 36 17  1  0  0  0  0
 37 17  1  0  0  0  0
 38 21  1  0  0  0  0
 40 26  1  0  0  0  0
 41 44  1  0  0  0  0
 41 22  1  0  0  0  0
 42 41  1  0  0  0  0
 43 41  1  0  0  0  0
 45 47  1  0  0  0  0
 46 45  1  0  0  0  0
 48 45  1  0  0  0  0
M  END
