
     RDKit          3D

  0  0  0  0  0  0  0  0  0  0999 V3000
M  V30 BEGIN CTAB
M  V30 COUNTS 90 92 0 0 0
M  V30 BEGIN ATOM
M  V30 1 C -3.9992 -2.1149 -1.8823 0
M  V30 2 C -4.1306 -2.4690 -0.4756 0
M  V30 3 C -3.4057 -2.9911 -2.7828 0
M  V30 4 C -3.1976 -2.6134 -4.1104 0
M  V30 5 H -3.1006 -3.9799 -2.4758 0
M  V30 6 C -3.5438 -1.3293 -4.5177 0
M  V30 7 C -4.1394 -0.4397 -3.6249 0
M  V30 8 H -3.3553 -0.9962 -5.5270 0
M  V30 9 C -4.3917 -0.8517 -2.3218 0
M  V30 10 C -4.4218 0.9370 -3.9985 0
M  V30 11 H -4.8637 -0.1900 -1.6133 0
M  V30 12 C -2.6049 -3.5430 -5.0609 0
M  V30 13 H -4.9900 1.5183 -3.2571 0
M  V30 14 H -3.5407 -3.3392 -0.1479 0
M  V30 15 C -2.2111 1.0061 0.1740 0
M  V30 16 C -3.3986 0.5850 0.9064 0
M  V30 17 C -2.3574 1.6889 -1.0278 0
M  V30 18 C -1.2483 2.0022 -1.8122 0
M  V30 19 H -3.3328 1.9664 -1.3946 0
M  V30 20 C 0.0206 1.6711 -1.3532 0
M  V30 21 C 0.1879 1.0263 -0.1266 0
M  V30 22 H 0.9015 1.9033 -1.9327 0
M  V30 23 C -0.9319 0.6788 0.6208 0
M  V30 24 C 1.5210 0.7078 0.3630 0
M  V30 25 H -0.8364 0.1483 1.5561 0
M  V30 26 C -1.4195 2.6003 -3.1327 0
M  V30 27 H 1.5603 0.1623 1.3206 0
M  V30 28 H -0.5175 2.5857 -3.7562 0
M  V30 29 C -4.5057 -0.7687 2.4967 0
M  V30 30 C -4.8181 -2.0806 1.7184 0
M  V30 31 N -3.3266 -0.2152 1.8787 0
M  V30 32 N -4.8378 -1.7956 0.3220 0
M  V30 33 C -1.6983 -5.6026 -5.6827 0
M  V30 34 C -0.2942 -6.0550 -5.1824 0
M  V30 35 N -2.2916 -4.7211 -4.7356 0
M  V30 36 N -0.3476 -6.6110 -3.8417 0
M  V30 37 C -4.1470 2.8657 -5.2344 0
M  V30 38 C -2.8102 3.5540 -4.8253 0
M  V30 39 N -3.9956 1.4561 -5.0675 0
M  V30 40 N -2.5340 3.0531 -3.5051 0
M  V30 41 C 4.4987 2.1112 0.7527 0
M  V30 42 C 3.8480 0.7776 0.2692 0
M  V30 43 N 3.7257 2.7465 1.8048 0
M  V30 44 N 2.5607 1.0358 -0.2738 0
M  V30 45 H -0.7395 -5.9216 -3.2090 0
M  V30 46 H -0.9548 -7.4236 -3.8223 0
M  V30 47 H 2.8011 2.9910 1.4665 0
M  V30 48 H 3.6185 2.1247 2.5991 0
M  V30 49 H -1.6100 -5.1562 -6.6874 0
M  V30 50 H -2.3391 -6.4894 -5.7452 0
M  V30 51 H -5.8122 -2.4237 2.0190 0
M  V30 52 H -4.0762 -2.8523 1.9785 0
M  V30 53 H 3.8156 0.0719 1.1190 0
M  V30 54 H 4.4690 0.3571 -0.5251 0
M  V30 55 C 4.5952 3.0873 -0.4191 0
M  V30 56 H 5.2625 2.6998 -1.1836 0
M  V30 57 H 4.9737 4.0417 -0.0638 0
M  V30 58 H 3.6120 3.2360 -0.8572 0
M  V30 59 C 5.8897 1.8054 1.3093 0
M  V30 60 H 6.3383 2.7246 1.6753 0
M  V30 61 H 6.5270 1.3807 0.5386 0
M  V30 62 H 5.8267 1.1007 2.1361 0
M  V30 63 C 0.6499 -4.8514 -5.1563 0
M  V30 64 H 1.6150 -5.1591 -4.7643 0
M  V30 65 H 0.2481 -4.0706 -4.5139 0
M  V30 66 H 0.7843 -4.4474 -6.1565 0
M  V30 67 C 0.2476 -7.1273 -6.1284 0
M  V30 68 H -0.4206 -7.9854 -6.1585 0
M  V30 69 H 1.2191 -7.4604 -5.7744 0
M  V30 70 H 0.3531 -6.7338 -7.1360 0
M  V30 71 C -1.7477 3.2669 -5.8901 0
M  V30 72 H -1.5898 2.1944 -5.9755 0
M  V30 73 H -0.8068 3.7552 -5.6440 0
M  V30 74 H -2.0862 3.6474 -6.8500 0
M  V30 75 H -4.3541 3.0785 -6.2848 0
M  V30 76 H -4.9508 3.2739 -4.6030 0
M  V30 77 C -3.0435 5.0642 -4.7028 0
M  V30 78 H -2.1062 5.5644 -4.4691 0
M  V30 79 H -3.7514 5.2692 -3.9038 0
M  V30 80 H -3.4337 5.4616 -5.6362 0
M  V30 81 C -5.7467 0.1320 2.4690 0
M  V30 82 H -5.4879 1.1394 2.7901 0
M  V30 83 H -6.4983 -0.2668 3.1456 0
M  V30 84 H -6.1712 0.1689 1.4695 0
M  V30 85 C -4.1323 -1.1131 3.9405 0
M  V30 86 H -3.1982 -1.6679 3.9562 0
M  V30 87 H -4.9114 -1.7108 4.4071 0
M  V30 88 H -3.9982 -0.1982 4.5125 0
M  V30 89 H -2.4611 -3.1566 -6.0820 0
M  V30 90 H -4.3388 0.9862 0.5135 0
M  V30 END ATOM
M  V30 BEGIN BOND
M  V30 1 1 1 2
M  V30 2 1 2 14
M  V30 3 2 2 32
M  V30 4 1 3 1
M  V30 5 1 3 5
M  V30 6 2 4 3
M  V30 7 2 6 7
M  V30 8 1 6 4
M  V30 9 1 7 9
M  V30 10 1 8 6
M  V30 11 1 9 11
M  V30 12 2 9 1
M  V30 13 2 10 39
M  V30 14 1 10 7
M  V30 15 1 12 4
M  V30 16 1 12 89
M  V30 17 1 13 10
M  V30 18 1 15 16
M  V30 19 2 16 31
M  V30 20 1 16 90
M  V30 21 1 17 19
M  V30 22 1 17 15
M  V30 23 2 18 17
M  V30 24 2 20 21
M  V30 25 1 20 18
M  V30 26 1 21 23
M  V30 27 1 22 20
M  V30 28 1 23 25
M  V30 29 2 23 15
M  V30 30 2 24 44
M  V30 31 1 24 21
M  V30 32 1 26 18
M  V30 33 1 26 28
M  V30 34 1 27 24
M  V30 35 1 29 85
M  V30 36 1 29 81
M  V30 37 1 30 51
M  V30 38 1 30 52
M  V30 39 1 30 29
M  V30 40 1 31 29
M  V30 41 1 32 30
M  V30 42 1 33 35
M  V30 43 1 33 50
M  V30 44 1 34 67
M  V30 45 1 34 63
M  V30 46 1 34 33
M  V30 47 1 34 36
M  V30 48 2 35 12
M  V30 49 1 36 46
M  V30 50 1 37 38
M  V30 51 1 37 39
M  V30 52 1 38 77
M  V30 53 1 38 40
M  V30 54 2 40 26
M  V30 55 1 41 42
M  V30 56 1 41 55
M  V30 57 1 42 54
M  V30 58 1 42 44
M  V30 59 1 43 48
M  V30 60 1 43 41
M  V30 61 1 45 36
M  V30 62 1 47 43
M  V30 63 1 49 33
M  V30 64 1 53 42
M  V30 65 1 55 58
M  V30 66 1 55 57
M  V30 67 1 56 55
M  V30 68 1 59 41
M  V30 69 1 59 62
M  V30 70 1 60 59
M  V30 71 1 61 59
M  V30 72 1 63 65
M  V30 73 1 63 64
M  V30 74 1 66 63
M  V30 75 1 67 69
M  V30 76 1 68 67
M  V30 77 1 70 67
M  V30 78 1 71 74
M  V30 79 1 71 38
M  V30 80 1 71 73
M  V30 81 1 72 71
M  V30 82 1 75 37
M  V30 83 1 76 37
M  V30 84 1 77 78
M  V30 85 1 77 80
M  V30 86 1 79 77
M  V30 87 1 81 83
M  V30 88 1 81 84
M  V30 89 1 81 82
M  V30 90 1 85 88
M  V30 91 1 85 87
M  V30 92 1 86 85
M  V30 END BOND
M  V30 END CTAB
M  END

$$$$
