106

C -0.852600 -3.378900 -2.047900
C -0.045700 -3.468000 -0.838100
C -2.218300 -3.633600 -2.015200
C -3.001500 -3.457200 -3.157100
H -2.700100 -3.979500 -1.113300
C -2.414700 -2.970800 -4.320400
C -1.046000 -2.710200 -4.366800
H -3.004500 -2.782100 -5.204500
C -0.269700 -2.948100 -3.238500
C -0.423800 -2.118700 -5.540700
H 0.793500 -2.768000 -3.247900
C -4.425700 -3.761800 -3.130200
H 0.675900 -2.082900 -5.520600
H -0.608800 -3.458600 0.108600
H -4.971700 -3.579600 -4.068500
C 1.333700 0.317500 -1.764000
C 2.183900 -0.784100 -1.341300
C 0.966200 0.412500 -3.101200
C 0.038500 1.364400 -3.520700
H 1.359600 -0.272400 -3.835500
C -0.470000 2.268400 -2.596200
C -0.063300 2.226400 -1.261800
H -1.185700 3.020600 -2.891400
C 0.816700 1.232100 -0.848000
C -0.563000 3.201600 -0.299000
H 1.113700 1.146400 0.186300
C -0.451900 1.342200 -4.892500
H -0.216800 3.050400 0.730300
H -1.412300 1.854800 -5.060700
C 3.033300 -2.323200 0.158800
C 1.969900 -3.434100 0.338400
N 2.336400 -1.106700 -0.130500
N 1.214100 -3.499400 -0.873000
C -6.388300 -4.513600 -2.106400
C -7.081100 -3.646400 -1.040000
N -4.990100 -4.213000 -2.096500
N -6.997200 -2.252500 -1.454100
C -0.380200 -0.889400 -7.497300
C -0.433900 0.608200 -7.107800
N -1.088600 -1.618400 -6.489800
N 0.157000 0.732000 -5.812200
C -1.282800 6.516000 -0.349800
C -1.826200 5.163000 0.196300
N -1.516300 6.709400 -1.765900
N -1.329800 4.134700 -0.663100
H 2.644000 -1.360900 -2.157600
H -6.025400 -1.982500 -1.566700
H -7.407800 -1.651700 -0.747300
H -1.116200 5.931700 -2.280300
H -2.514400 6.713800 -1.953300
C -1.904800 7.670800 0.433900
C -8.553200 -4.037500 -0.916600
C 0.343400 1.419700 -8.146100
C 3.861000 -2.198700 1.434000
H -6.570900 -3.836800 -0.078200
C -8.710800 -5.517700 -0.590100
H -9.047600 -3.807300 -1.861900
H -9.020300 -3.429000 -0.138700
C -8.034900 -6.368000 -1.659900
H -9.771000 -5.770200 -0.524400
H -8.254700 -5.727100 0.380500
C -6.561400 -5.999300 -1.773600
H -8.527100 -6.200900 -2.620600
H -8.129300 -7.427400 -1.412900
H -6.077600 -6.594100 -2.551400
H -6.049800 -6.201300 -0.830700
H -6.850700 -4.289600 -3.084300
H -0.195200 6.520300 -0.203500
C -1.631400 7.540400 1.927700
H -2.983600 7.677400 0.257700
H -1.498100 8.607000 0.049600
C -2.162000 6.209600 2.451200
H -2.103300 8.366500 2.463100
H -0.555100 7.596800 2.105800
C -1.526700 5.048400 1.693700
H -3.247200 6.175500 2.326600
H -1.945500 6.114800 3.517500
H -2.916200 5.166100 0.045400
H -1.913100 4.098500 2.073100
H -0.445000 5.067400 1.849800
H -1.489300 0.935100 -7.104900
C -0.263600 1.222100 -9.531300
H 1.385700 1.096300 -8.138000
H 0.316000 2.475200 -7.865900
C -0.272400 -0.255000 -9.915600
H 0.307100 1.794200 -10.265600
H -1.288000 1.602100 -9.532900
C -1.015000 -1.081900 -8.870900
H 0.685600 -1.177100 -7.526900
H -2.061900 -0.778500 -8.819100
H -0.984900 -2.141100 -9.133300
H 0.756600 -0.613700 -9.994100
H -0.746200 -0.381500 -10.891100
H 3.677800 -2.627000 -0.684900
C 4.552300 -3.522400 1.745100
H 3.200800 -1.912200 2.254300
H 4.599900 -1.405600 1.304800
C 3.531300 -4.649300 1.876300
H 5.124800 -3.431100 2.670200
H 5.252000 -3.761000 0.940500
C 2.679800 -4.760800 0.615800
H 2.882400 -4.451200 2.732700
H 4.043900 -5.596400 2.056400
H 1.930900 -5.547700 0.730900
H 3.303600 -5.013000 -0.243500
H 1.330500 -3.175500 1.201700
