
 OpenBabel03112014123D

 75 77  0  0  0  0  0  0  0  0999 V2000
   -3.2666   -1.7491   -0.8904 C   0  0  0  0  0  0  0  0  0  0  0  0
   -3.7218   -1.3059    0.4345 C   0  0  0  0  0  0  0  0  0  0  0  0
   -2.3357   -2.7808   -1.0603 C   0  0  0  0  0  0  0  0  0  0  0  0
   -1.8815   -3.1134   -2.3468 C   0  0  0  0  0  0  0  0  0  0  0  0
   -1.9607   -3.3207   -0.1986 H   0  0  0  0  0  0  0  0  0  0  0  0
   -2.3470   -2.3838   -3.4582 C   0  0  0  0  0  0  0  0  0  0  0  0
   -3.2782   -1.3515   -3.2900 C   0  0  0  0  0  0  0  0  0  0  0  0
   -1.9812   -2.6152   -4.4517 H   0  0  0  0  0  0  0  0  0  0  0  0
   -3.7479   -1.0535   -2.0057 C   0  0  0  0  0  0  0  0  0  0  0  0
   -3.7202   -0.5482   -4.4514 C   0  0  0  0  0  0  0  0  0  0  0  0
   -4.4540   -0.2450   -1.8632 H   0  0  0  0  0  0  0  0  0  0  0  0
   -0.9085   -4.2107   -2.5111 C   0  0  0  0  0  0  0  0  0  0  0  0
   -3.2253   -0.7120   -5.4010 H   0  0  0  0  0  0  0  0  0  0  0  0
   -4.4865   -0.5453    0.4467 H   0  0  0  0  0  0  0  0  0  0  0  0
   -1.4710    2.0760    0.0841 C   0  0  0  0  0  0  0  0  0  0  0  0
   -1.3753    1.3541    1.3658 C   0  0  0  0  0  0  0  0  0  0  0  0
   -2.6859    2.1584   -0.6107 C   0  0  0  0  0  0  0  0  0  0  0  0
   -2.7393    2.7553   -1.8760 C   0  0  0  0  0  0  0  0  0  0  0  0
   -3.5805    1.7086   -0.1970 H   0  0  0  0  0  0  0  0  0  0  0  0
   -1.5839    3.3106   -2.4330 C   0  0  0  0  0  0  0  0  0  0  0  0
   -0.3797    3.2632   -1.7323 C   0  0  0  0  0  0  0  0  0  0  0  0
   -1.6180    3.7725   -3.4136 H   0  0  0  0  0  0  0  0  0  0  0  0
   -0.3197    2.6283   -0.4804 C   0  0  0  0  0  0  0  0  0  0  0  0
    0.8151    3.8636   -2.3273 C   0  0  0  0  0  0  0  0  0  0  0  0
    0.6200    2.5578    0.0534 H   0  0  0  0  0  0  0  0  0  0  0  0
   -3.9952    2.7120   -2.6266 C   0  0  0  0  0  0  0  0  0  0  0  0
   -4.8695    2.2840   -2.1401 H   0  0  0  0  0  0  0  0  0  0  0  0
   -2.4133    0.0622    3.1046 C   0  0  0  0  0  0  0  0  0  0  0  0
   -3.4185   -1.0860    2.8398 C   0  0  0  0  0  0  0  0  0  0  0  0
   -2.4415    0.9564    1.9671 N   0  0  0  0  0  0  0  0  0  0  0  0
   -1.3862   -0.3477    3.2450 H   0  0  0  0  0  0  0  0  0  0  0  0
   -3.1240   -1.6683    1.5250 N   0  0  0  0  0  0  0  0  0  0  0  0
   -4.8611   -0.5231    2.9413 C   0  0  0  0  0  0  0  0  0  0  0  0
   -0.4943   -4.5214   -3.6175 O   0  0  0  0  0  0  0  0  0  0  0  0
   -5.0910    1.3062   -5.3288 C   0  0  0  0  0  0  0  0  0  0  0  0
   -5.2152    2.7037   -4.6603 C   0  0  0  0  0  0  0  0  0  0  0  0
   -4.6376    0.3519   -4.3132 N   0  0  0  0  0  0  0  0  0  0  0  0
   -4.1376    1.3953   -6.5471 C   0  0  0  0  0  0  0  0  0  0  0  0
   -4.0243    2.9778   -3.8884 N   0  0  0  0  0  0  0  0  0  0  0  0
   -6.0961    2.7049   -3.9773 H   0  0  0  0  0  0  0  0  0  0  0  0
    3.1256    4.4400   -2.2216 C   0  0  0  0  0  0  0  0  0  0  0  0
    4.2400    3.3770   -2.2882 C   0  0  0  0  0  0  0  0  0  0  0  0
    1.9211    3.8698   -1.6780 N   0  0  0  0  0  0  0  0  0  0  0  0
    2.9423    4.8590   -3.2379 H   0  0  0  0  0  0  0  0  0  0  0  0
    4.5681    2.9187   -0.9300 N   0  0  0  0  0  0  0  0  0  0  0  0
    5.4748    4.0431   -2.9068 C   0  0  0  0  0  0  0  0  0  0  0  0
   -0.3930    1.0999    1.7567 H   0  0  0  0  0  0  0  0  0  0  0  0
    0.7492    4.3128   -3.3165 H   0  0  0  0  0  0  0  0  0  0  0  0
    5.3193    2.1913   -0.9642 H   0  0  0  0  0  0  0  0  0  0  0  0
   -0.5595   -4.7580   -1.6414 H   0  0  0  0  0  0  0  0  0  0  0  0
   -2.6892    0.6143    4.0290 H   0  0  0  0  0  0  0  0  0  0  0  0
   -3.2595   -2.1766    3.9070 C   0  0  0  0  0  0  0  0  0  0  0  0
   -6.4777    0.8652   -5.7987 C   0  0  0  0  0  0  0  0  0  0  0  0
   -5.4005    3.5143   -5.3983 H   0  0  0  0  0  0  0  0  0  0  0  0
    3.4396    5.2779   -1.5628 H   0  0  0  0  0  0  0  0  0  0  0  0
    3.8139    2.1769   -3.1663 C   0  0  0  0  0  0  0  0  0  0  0  0
   -4.0833    0.4241   -7.0836 H   0  0  0  0  0  0  0  0  0  0  0  0
   -3.1141    1.6945   -6.2333 H   0  0  0  0  0  0  0  0  0  0  0  0
   -4.5118    2.1440   -7.2773 H   0  0  0  0  0  0  0  0  0  0  0  0
   -3.9790   -3.0023    3.7207 H   0  0  0  0  0  0  0  0  0  0  0  0
   -3.4516   -1.7593    4.9194 H   0  0  0  0  0  0  0  0  0  0  0  0
   -2.2311   -2.5970    3.8917 H   0  0  0  0  0  0  0  0  0  0  0  0
    4.6426    1.4404   -3.2429 H   0  0  0  0  0  0  0  0  0  0  0  0
    3.5507    2.5129   -4.1923 H   0  0  0  0  0  0  0  0  0  0  0  0
    2.9345    1.6516   -2.7348 H   0  0  0  0  0  0  0  0  0  0  0  0
    3.7325    2.4916   -0.4665 H   0  0  0  0  0  0  0  0  0  0  0  0
   -7.1654    0.7974   -4.9265 H   0  0  0  0  0  0  0  0  0  0  0  0
   -6.4156   -0.1409   -6.2641 H   0  0  0  0  0  0  0  0  0  0  0  0
   -6.8950    1.5884   -6.5296 H   0  0  0  0  0  0  0  0  0  0  0  0
    5.7898    4.9103   -2.2874 H   0  0  0  0  0  0  0  0  0  0  0  0
    5.2399    4.4084   -3.9309 H   0  0  0  0  0  0  0  0  0  0  0  0
    6.3169    3.3241   -2.9709 H   0  0  0  0  0  0  0  0  0  0  0  0
   -5.0683   -0.1648    3.9706 H   0  0  0  0  0  0  0  0  0  0  0  0
   -5.5968   -1.3122    2.6781 H   0  0  0  0  0  0  0  0  0  0  0  0
   -5.0168    0.3562    2.2810 H   0  0  0  0  0  0  0  0  0  0  0  0
  1  2  1  0  0  0  0
  2 14  1  0  0  0  0
  2 32  2  0  0  0  0
  3  1  1  0  0  0  0
  3  5  1  0  0  0  0
  4  3  2  0  0  0  0
  6  7  2  0  0  0  0
  6  4  1  0  0  0  0
  7  9  1  0  0  0  0
  8  6  1  0  0  0  0
  9 11  1  0  0  0  0
  9  1  2  0  0  0  0
 10 37  2  0  0  0  0
 10  7  1  0  0  0  0
 12  4  1  0  0  0  0
 12 50  1  0  0  0  0
 13 10  1  0  0  0  0
 15 16  1  0  0  0  0
 16 47  1  0  0  0  0
 16 30  2  0  0  0  0
 17 19  1  0  0  0  0
 17 15  2  0  0  0  0
 18 17  1  0  0  0  0
 20 18  2  0  0  0  0
 20 21  1  0  0  0  0
 21 23  2  0  0  0  0
 22 20  1  0  0  0  0
 23 25  1  0  0  0  0
 23 15  1  0  0  0  0
 24 21  1  0  0  0  0
 24 43  2  0  0  0  0
 26 27  1  0  0  0  0
 26 18  1  0  0  0  0
 28 31  1  0  0  0  0
 28 51  1  0  0  0  0
 29 33  1  0  0  0  0
 29 28  1  0  0  0  0
 29 52  1  0  0  0  0
 30 28  1  0  0  0  0
 32 29  1  0  0  0  0
 33 73  1  0  0  0  0
 34 12  2  0  0  0  0
 35 36  1  0  0  0  0
 35 37  1  0  0  0  0
 36 40  1  0  0  0  0
 36 39  1  0  0  0  0
 38 58  1  0  0  0  0
 38 35  1  0  0  0  0
 39 26  2  0  0  0  0
 41 43  1  0  0  0  0
 41 55  1  0  0  0  0
 42 41  1  0  0  0  0
 42 45  1  0  0  0  0
 44 41  1  0  0  0  0
 45 66  1  0  0  0  0
 46 42  1  0  0  0  0
 46 70  1  0  0  0  0
 48 24  1  0  0  0  0
 49 45  1  0  0  0  0
 52 61  1  0  0  0  0
 53 35  1  0  0  0  0
 53 67  1  0  0  0  0
 54 36  1  0  0  0  0
 56 65  1  0  0  0  0
 56 42  1  0  0  0  0
 57 38  1  0  0  0  0
 59 38  1  0  0  0  0
 60 52  1  0  0  0  0
 62 52  1  0  0  0  0
 63 56  1  0  0  0  0
 64 56  1  0  0  0  0
 68 53  1  0  0  0  0
 69 53  1  0  0  0  0
 71 46  1  0  0  0  0
 72 46  1  0  0  0  0
 74 33  1  0  0  0  0
 75 33  1  0  0  0  0
M  END
