106

C -3.847400 -1.907900 -0.377000
C -4.113600 -1.503800 0.993400
C -3.101900 -3.049500 -0.669000
C -2.768400 -3.356500 -1.980500
H -2.779500 -3.682000 0.143500
C -3.145300 -2.498100 -3.002700
C -3.892700 -1.353700 -2.728600
H -2.858400 -2.736300 -4.015900
C -4.263300 -1.082100 -1.415600
C -4.189400 -0.395100 -3.782900
H -4.846800 -0.195900 -1.222200
C -1.944700 -4.593100 -2.259400
H -3.575700 -0.490300 -4.693700
H -4.775900 -0.631100 1.101600
C -1.249800 1.156100 0.482500
C -1.337200 0.379600 1.710500
C -2.408800 1.609900 -0.138700
C -2.352000 2.211500 -1.391100
H -3.352100 1.448000 0.358400
C -1.112200 2.411500 -1.997100
C 0.054400 2.006900 -1.364100
H -1.077900 2.874800 -2.970900
C -0.018700 1.362100 -0.138300
C 1.380300 2.224000 -2.057300
H 0.895000 1.030800 0.331900
C -3.593600 2.522600 -2.079500
H -4.505400 2.396500 -1.475800
C -2.468500 -0.562200 3.515600
C -3.731200 -1.427100 3.269700
N -2.373300 0.360700 2.429000
N -3.571300 -2.052400 1.992800
C -0.271100 -4.388600 -3.844600
C 0.351500 -4.874200 -2.524100
N -1.672100 -4.754800 -3.697400
N -0.654300 -4.525400 -1.532600
C -5.158000 1.542900 -4.638200
C -4.932300 2.899600 -3.923300
N -5.044800 0.521200 -3.645800
N -3.645500 2.838700 -3.300700
C 2.650500 0.813300 -3.405700
C 2.915500 0.497500 -1.923300
N 1.390400 1.539400 -3.372300
N 2.506300 1.722400 -1.252000
H -0.452800 -0.235800 1.943700
H 0.610600 0.888500 -3.418800
H 1.507800 3.301200 -2.234900
H 3.270900 2.389800 -1.267400
H -0.504100 -3.575800 -1.201400
H -1.800200 -5.724200 -3.970000
H -2.496400 -5.469200 -1.890100
C 4.336200 0.007500 -1.733800
C 1.749900 -4.313400 -2.368300
C -2.617300 0.163200 4.853000
C -5.010300 4.029500 -4.944700
H -1.590200 -1.232300 3.556400
C -3.865700 -2.456100 4.387300
H -4.598900 -0.743200 3.277300
C -3.982700 -1.753900 5.736600
H -2.991500 -3.108700 4.371300
H -4.748000 -3.071800 4.201900
C -2.779400 -0.847800 5.983700
H -4.057400 -2.496300 6.533700
H -4.895400 -1.153500 5.751800
H -1.875800 -1.458300 6.052300
H -2.900000 -0.320400 6.932300
H -3.486400 0.821200 4.802700
H -1.734500 0.783900 5.022000
H 0.405900 -5.973300 -2.546300
C 2.578800 -4.806800 -3.558900
H 2.200500 -4.643300 -1.430700
H 1.708200 -3.220700 -2.362000
C 1.945500 -4.441300 -4.905100
H 2.673200 -5.893100 -3.491800
H 3.583900 -4.383300 -3.508000
C 0.501100 -4.938800 -5.026000
H 2.547500 -4.865800 -5.710900
H 1.952800 -3.355500 -5.023100
H 0.476700 -6.031400 -5.008000
H 0.064100 -4.603700 -5.968000
H -0.232500 -3.289100 -3.865600
H 2.214500 -0.287800 -1.602700
C 4.505900 -1.255800 -2.584600
H 4.535500 -0.214900 -0.684200
H 5.040100 0.777600 -2.059200
C 4.149400 -1.021600 -4.056000
H 3.862900 -2.040000 -2.179100
H 5.537700 -1.606300 -2.517700
C 2.737800 -0.452300 -4.233400
H 4.237100 -1.963600 -4.601200
H 4.865500 -0.319800 -4.489700
H 2.543300 -0.243900 -5.286700
H 1.992100 -1.171400 -3.883400
H 3.415700 1.523600 -3.754200
H -5.737200 3.009100 -3.174400
C -6.545000 1.545900 -5.280900
H -4.388600 1.431400 -5.424200
C -6.654300 2.685600 -6.288900
H -7.296600 1.656700 -4.497500
H -6.711600 0.585500 -5.773800
C -6.376700 4.030900 -5.623100
H -7.652600 2.689000 -6.731400
H -5.932000 2.525000 -7.092900
H -7.149000 4.229700 -4.876100
H -6.418300 4.828500 -6.367600
H -4.218300 3.891700 -5.682500
H -4.836500 4.981200 -4.439000
