87

C -3.666500 -1.350800 -0.654200
C -3.575600 -0.998000 0.754100
C -3.190400 -2.571300 -1.129100
C -3.186300 -2.836700 -2.494400
H -2.818000 -3.293500 -0.418700
C -3.621300 -1.862100 -3.394300
C -4.105700 -0.644000 -2.933200
H -3.574900 -2.078800 -4.452000
C -4.149300 -0.410800 -1.559600
C -4.467400 0.417300 -3.864700
H -4.534800 0.537500 -1.219200
C -2.697300 -4.126700 -3.000600
H -4.066800 0.305900 -4.884200
H -4.043200 -0.041200 1.029300
C -0.524400 1.250600 -0.297500
C -0.461200 0.412100 0.890100
C -1.704200 1.912100 -0.623200
C -1.828400 2.579800 -1.836500
H -2.529300 1.858500 0.069300
C -0.734500 2.639200 -2.699600
C 0.465000 2.030900 -2.359000
H -0.843100 3.157900 -3.639500
C 0.557300 1.315400 -1.174100
C 1.649300 2.147100 -3.293000
H 1.483100 0.810200 -0.943800
C -3.127600 3.104600 -2.220800
H -3.898400 3.063700 -1.435100
C -1.308200 -0.488500 2.865300
C -2.713600 -1.142900 2.891700
N -1.315100 0.481700 1.816100
H -0.558500 -1.279600 2.681200
C -1.039500 0.159100 4.224000
N -2.939200 -1.695300 1.592100
H -3.439200 -0.342500 3.120400
C -2.754300 -2.214800 3.975500
C -1.101000 -0.891400 5.328400
C -2.455500 -1.595000 5.337100
O -2.641700 -4.444300 -4.160900
C -5.318000 2.514200 -4.414700
C -4.759000 3.777400 -3.711400
N -5.144100 1.420500 -3.512200
H -4.753700 2.359300 -5.351800
C -6.794800 2.739400 -4.739300
N -3.392200 3.505700 -3.388100
H -5.364600 3.937900 -2.801200
C -4.889800 4.975400 -4.645900
C -6.951300 3.950500 -5.653600
C -6.354000 5.199700 -5.011000
C 3.612400 2.696200 -2.224400
C 3.341300 3.755800 -3.306200
N 2.853800 1.548900 -2.702000
H 3.133000 3.020600 -1.289200
C 5.101100 2.539900 -1.995500
N 1.928900 3.570800 -3.607600
H 3.899000 3.478900 -4.214200
C 3.810200 5.117800 -2.836100
C 5.640900 3.903300 -1.550400
C 5.312500 5.014200 -2.552500
H 0.355000 -0.327900 0.900900
H 3.389200 1.065200 -3.416700
H 1.404600 1.630000 -4.231400
H 1.364900 4.167100 -3.008000
H -2.369500 -4.820800 -2.201300
H -8.009600 4.112800 -5.867900
H -6.443900 3.753800 -6.600900
H -6.437600 6.044900 -5.696900
H -6.916900 5.445000 -4.107300
H -4.481800 5.859600 -4.152500
H -4.297200 4.788000 -5.542600
H -7.194200 1.845000 -5.222400
H -7.342200 2.892000 -3.807700
H 3.620600 5.877900 -3.595600
H 3.273700 5.400900 -1.926700
H 5.678900 5.966700 -2.165100
H 5.834200 4.814500 -3.491400
H 6.723200 3.844700 -1.421100
H 5.203100 4.154800 -0.581500
H 5.589000 2.226400 -2.921800
H 5.301300 1.786000 -1.232500
H -2.018100 -2.984300 3.737500
H -3.740600 -2.682700 3.979600
H -1.783800 0.938200 4.397300
H -0.055100 0.632000 4.204200
H -0.922900 -0.416800 6.295500
H -0.311700 -1.629400 5.167000
H -2.465200 -2.370700 6.105200
H -3.236600 -0.871400 5.582300
