
 OpenBabel02022020203D

138142  0  0  1  0  0  0  0  0999 V2000
   -3.5164   -1.7529   -0.8565 C   0  0  0  0  0  0  0  0  0  0  0  0
   -3.7630   -1.2517    0.5095 C   0  0  0  0  0  0  0  0  0  0  0  0
   -2.7413   -2.8970   -1.0929 C   0  0  0  0  0  0  0  0  0  0  0  0
   -2.4627   -3.3092   -2.4078 C   0  0  0  0  0  0  0  0  0  0  0  0
   -2.3517   -3.4637   -0.2558 H   0  0  0  0  0  0  0  0  0  0  0  0
   -2.9400   -2.5401   -3.4881 C   0  0  0  0  0  0  0  0  0  0  0  0
   -3.7208   -1.3964   -3.2574 C   0  0  0  0  0  0  0  0  0  0  0  0
   -2.7013   -2.8268   -4.5044 H   0  0  0  0  0  0  0  0  0  0  0  0
   -4.0218   -1.0237   -1.9385 C   0  0  0  0  0  0  0  0  0  0  0  0
   -4.1526   -0.5451   -4.3914 C   0  0  0  0  0  0  0  0  0  0  0  0
   -4.6023   -0.1295   -1.7481 H   0  0  0  0  0  0  0  0  0  0  0  0
   -1.6354   -4.5591   -2.6409 C   0  0  1  0  0  0  0  0  0  0  0  0
   -3.7241   -0.7185   -5.3755 H   0  0  0  0  0  0  0  0  0  0  0  0
   -4.4319   -0.4025    0.6326 H   0  0  0  0  0  0  0  0  0  0  0  0
   -0.9315    1.6661   -0.0815 C   0  0  0  0  0  0  0  0  0  0  0  0
   -0.8271    0.9533    1.2145 C   0  0  0  0  0  0  0  0  0  0  0  0
   -2.1896    1.9109   -0.6527 C   0  0  0  0  0  0  0  0  0  0  0  0
   -2.2982    2.4687   -1.9313 C   0  0  0  0  0  0  0  0  0  0  0  0
   -3.0894    1.6157   -0.1273 H   0  0  0  0  0  0  0  0  0  0  0  0
   -1.1387    2.8250   -2.6331 C   0  0  0  0  0  0  0  0  0  0  0  0
    0.1296    2.6274   -2.0599 C   0  0  0  0  0  0  0  0  0  0  0  0
   -1.2219    3.2574   -3.6229 H   0  0  0  0  0  0  0  0  0  0  0  0
    0.2270    2.0313   -0.7862 C   0  0  0  0  0  0  0  0  0  0  0  0
    1.3696    3.0394   -2.8293 C   0  0  2  0  0  0  0  0  0  0  0  0
    1.1999    1.8414   -0.3508 H   0  0  0  0  0  0  0  0  0  0  0  0
   -3.6402    2.6099   -2.5281 C   0  0  0  0  0  0  0  0  0  0  0  0
   -4.5047    2.3850   -1.9071 H   0  0  0  0  0  0  0  0  0  0  0  0
   -1.9078   -0.2145    3.0459 C   0  0  1  0  0  0  0  0  0  0  0  0
   -3.2085   -1.0850    2.8411 C   0  0  1  0  0  0  0  0  0  0  0  0
   -1.8895    0.6893    1.9012 N   0  0  0  0  0  0  0  0  0  0  0  0
   -1.0143   -0.8782    2.9711 H   0  0  0  0  0  0  0  0  0  0  0  0
   -1.7761    0.5756    4.3902 C   0  0  0  0  0  0  0  0  0  0  0  0
   -3.0814   -1.6865    1.5173 N   0  0  0  0  0  0  0  0  0  0  0  0
   -4.0729   -0.3791    2.8271 H   0  0  0  0  0  0  0  0  0  0  0  0
   -3.5700   -2.1833    3.8956 C   0  0  0  0  0  0  0  0  0  0  0  0
   -2.7726    0.9799    4.6678 H   0  0  0  0  0  0  0  0  0  0  0  0
   -0.8391    1.7954    4.2706 C   0  0  0  0  0  0  0  0  0  0  0  0
   -1.1798   -0.3157    5.5072 C   0  0  0  0  0  0  0  0  0  0  0  0
   -2.6410   -2.7118    4.1980 H   0  0  0  0  0  0  0  0  0  0  0  0
   -4.5079   -3.2588    3.3036 C   0  0  0  0  0  0  0  0  0  0  0  0
   -4.3184   -1.5913    5.1155 C   0  0  0  0  0  0  0  0  0  0  0  0
   -1.7235   -1.2533    5.6915 H   0  0  0  0  0  0  0  0  0  0  0  0
   -1.1424    0.2450    6.4656 H   0  0  0  0  0  0  0  0  0  0  0  0
   -0.1433   -0.6175    5.2418 H   0  0  0  0  0  0  0  0  0  0  0  0
   -1.2282    2.5256    3.5305 H   0  0  0  0  0  0  0  0  0  0  0  0
    0.1844    1.4838    3.9690 H   0  0  0  0  0  0  0  0  0  0  0  0
   -0.7748    2.3291    5.2433 H   0  0  0  0  0  0  0  0  0  0  0  0
   -3.7889   -0.7883    5.6456 H   0  0  0  0  0  0  0  0  0  0  0  0
   -4.5294   -2.3910    5.8575 H   0  0  0  0  0  0  0  0  0  0  0  0
   -5.2886   -1.1545    4.7932 H   0  0  0  0  0  0  0  0  0  0  0  0
   -4.0247   -3.7923    2.4582 H   0  0  0  0  0  0  0  0  0  0  0  0
   -5.4560   -2.8033    2.9436 H   0  0  0  0  0  0  0  0  0  0  0  0
   -4.7488   -4.0271    4.0696 H   0  0  0  0  0  0  0  0  0  0  0  0
   -1.3111   -6.2776   -4.1019 C   0  0  1  0  0  0  0  0  0  0  0  0
   -0.4926   -5.0641   -4.5984 C   0  0  1  0  0  0  0  0  0  0  0  0
   -2.3788   -5.6000   -3.3733 N   0  0  0  0  0  0  0  0  0  0  0  0
   -0.7249   -6.8467   -3.3393 H   0  0  0  0  0  0  0  0  0  0  0  0
   -1.8386   -7.3193   -5.1348 C   0  0  0  0  0  0  0  0  0  0  0  0
   -0.3931   -4.2572   -3.3795 N   0  0  0  0  0  0  0  0  0  0  0  0
   -1.1148   -4.4670   -5.3048 H   0  0  0  0  0  0  0  0  0  0  0  0
    0.8813   -5.2972   -5.3018 C   0  0  0  0  0  0  0  0  0  0  0  0
   -2.1264   -6.7891   -6.0683 H   0  0  0  0  0  0  0  0  0  0  0  0
   -3.0998   -8.0431   -4.6218 C   0  0  0  0  0  0  0  0  0  0  0  0
   -0.7800   -8.4155   -5.4019 C   0  0  0  0  0  0  0  0  0  0  0  0
    1.4138   -6.1254   -4.7860 H   0  0  0  0  0  0  0  0  0  0  0  0
    1.7853   -4.0495   -5.2159 C   0  0  0  0  0  0  0  0  0  0  0  0
    0.6958   -5.5954   -6.8083 C   0  0  0  0  0  0  0  0  0  0  0  0
    0.2056   -8.0352   -5.7097 H   0  0  0  0  0  0  0  0  0  0  0  0
   -1.1427   -9.1158   -6.1845 H   0  0  0  0  0  0  0  0  0  0  0  0
   -0.5941   -9.0001   -4.4747 H   0  0  0  0  0  0  0  0  0  0  0  0
   -3.9330   -7.3290   -4.4566 H   0  0  0  0  0  0  0  0  0  0  0  0
   -2.8924   -8.5744   -3.6677 H   0  0  0  0  0  0  0  0  0  0  0  0
   -3.4521   -8.7821   -5.3736 H   0  0  0  0  0  0  0  0  0  0  0  0
    0.0220   -6.4336   -7.0339 H   0  0  0  0  0  0  0  0  0  0  0  0
    1.6787   -5.8128   -7.2782 H   0  0  0  0  0  0  0  0  0  0  0  0
    0.2539   -4.7136   -7.3206 H   0  0  0  0  0  0  0  0  0  0  0  0
    2.0267   -3.7917   -4.1647 H   0  0  0  0  0  0  0  0  0  0  0  0
    1.2960   -3.1725   -5.6921 H   0  0  0  0  0  0  0  0  0  0  0  0
    2.7532   -4.2405   -5.7274 H   0  0  0  0  0  0  0  0  0  0  0  0
   -5.2252    1.4749   -5.1953 C   0  0  1  0  0  0  0  0  0  0  0  0
   -5.1178    2.8373   -4.4072 C   0  0  1  0  0  0  0  0  0  0  0  0
   -4.9508    0.4516   -4.1931 N   0  0  0  0  0  0  0  0  0  0  0  0
   -4.4142    1.4334   -5.9601 H   0  0  0  0  0  0  0  0  0  0  0  0
   -6.5686    1.1820   -5.9416 C   0  0  0  0  0  0  0  0  0  0  0  0
   -3.7952    2.8392   -3.7902 N   0  0  0  0  0  0  0  0  0  0  0  0
   -5.8847    2.8046   -3.5969 H   0  0  0  0  0  0  0  0  0  0  0  0
   -5.3566    4.1836   -5.1681 C   0  0  0  0  0  0  0  0  0  0  0  0
   -7.4134    1.5376   -5.3142 H   0  0  0  0  0  0  0  0  0  0  0  0
   -6.8038   -0.3270   -6.1607 C   0  0  0  0  0  0  0  0  0  0  0  0
   -6.5802    1.8275   -7.3490 C   0  0  0  0  0  0  0  0  0  0  0  0
   -4.8716    4.1240   -6.1656 H   0  0  0  0  0  0  0  0  0  0  0  0
   -4.7027    5.3781   -4.4385 C   0  0  0  0  0  0  0  0  0  0  0  0
   -6.8629    4.5258   -5.2799 C   0  0  0  0  0  0  0  0  0  0  0  0
   -6.3887    2.9100   -7.3637 H   0  0  0  0  0  0  0  0  0  0  0  0
   -7.5603    1.6527   -7.8422 H   0  0  0  0  0  0  0  0  0  0  0  0
   -5.7876    1.3742   -7.9831 H   0  0  0  0  0  0  0  0  0  0  0  0
   -6.8750   -0.8641   -5.1918 H   0  0  0  0  0  0  0  0  0  0  0  0
   -5.9837   -0.7746   -6.7629 H   0  0  0  0  0  0  0  0  0  0  0  0
   -7.7661   -0.4944   -6.6910 H   0  0  0  0  0  0  0  0  0  0  0  0
   -7.4828    3.7581   -5.7623 H   0  0  0  0  0  0  0  0  0  0  0  0
   -6.9979    5.4671   -5.8545 H   0  0  0  0  0  0  0  0  0  0  0  0
   -7.2969    4.6742   -4.2672 H   0  0  0  0  0  0  0  0  0  0  0  0
   -3.6012    5.2544   -4.3724 H   0  0  0  0  0  0  0  0  0  0  0  0
   -5.1124    5.4876   -3.4108 H   0  0  0  0  0  0  0  0  0  0  0  0
   -4.8848    6.3209   -4.9983 H   0  0  0  0  0  0  0  0  0  0  0  0
    3.5342    2.3203   -2.3947 C   0  0  1  0  0  0  0  0  0  0  0  0
    3.4804    3.8523   -2.5879 C   0  0  1  0  0  0  0  0  0  0  0  0
    2.2859    1.8998   -3.0393 N   0  0  0  0  0  0  0  0  0  0  0  0
    3.4099    2.0843   -1.3121 H   0  0  0  0  0  0  0  0  0  0  0  0
    4.7852    1.5233   -2.8790 C   0  0  0  0  0  0  0  0  0  0  0  0
    2.1115    4.1231   -2.1622 N   0  0  0  0  0  0  0  0  0  0  0  0
    3.5262    4.0998   -3.6770 H   0  0  0  0  0  0  0  0  0  0  0  0
    4.5322    4.7595   -1.8813 C   0  0  0  0  0  0  0  0  0  0  0  0
    5.1262    1.9427   -3.8502 H   0  0  0  0  0  0  0  0  0  0  0  0
    4.4544    0.0347   -3.1126 C   0  0  0  0  0  0  0  0  0  0  0  0
    5.9136    1.5559   -1.8209 C   0  0  0  0  0  0  0  0  0  0  0  0
    4.7630    4.3355   -0.8804 H   0  0  0  0  0  0  0  0  0  0  0  0
    3.9896    6.1851   -1.6541 C   0  0  0  0  0  0  0  0  0  0  0  0
    5.8045    4.9073   -2.7497 C   0  0  0  0  0  0  0  0  0  0  0  0
    6.2220    2.5617   -1.5042 H   0  0  0  0  0  0  0  0  0  0  0  0
    6.8135    1.0299   -2.2058 H   0  0  0  0  0  0  0  0  0  0  0  0
    5.5825    1.0421   -0.8926 H   0  0  0  0  0  0  0  0  0  0  0  0
    3.6895   -0.0936   -3.9052 H   0  0  0  0  0  0  0  0  0  0  0  0
    4.0799   -0.4387   -2.1792 H   0  0  0  0  0  0  0  0  0  0  0  0
    5.3611   -0.5118   -3.4512 H   0  0  0  0  0  0  0  0  0  0  0  0
    6.2650    3.9553   -3.0543 H   0  0  0  0  0  0  0  0  0  0  0  0
    6.5688    5.5068   -2.2107 H   0  0  0  0  0  0  0  0  0  0  0  0
    5.5601    5.4327   -3.6986 H   0  0  0  0  0  0  0  0  0  0  0  0
    3.0998    6.1743   -0.9910 H   0  0  0  0  0  0  0  0  0  0  0  0
    3.7079    6.6609   -2.6186 H   0  0  0  0  0  0  0  0  0  0  0  0
    4.7575    6.8150   -1.1557 H   0  0  0  0  0  0  0  0  0  0  0  0
    0.1416    0.5764    1.5341 H   0  0  0  0  0  0  0  0  0  0  0  0
    2.4534    1.8275   -4.0719 H   0  0  0  0  0  0  0  0  0  0  0  0
    1.0590    3.4356   -3.8260 H   0  0  0  0  0  0  0  0  0  0  0  0
    2.0660    4.0055   -1.1210 H   0  0  0  0  0  0  0  0  0  0  0  0
    0.4014   -4.6255   -2.8028 H   0  0  0  0  0  0  0  0  0  0  0  0
   -3.0190   -5.1602   -4.0774 H   0  0  0  0  0  0  0  0  0  0  0  0
   -1.3603   -4.9975   -1.6514 H   0  0  0  0  0  0  0  0  0  0  0  0
  1  2  1  0  0  0  0
  2 14  1  0  0  0  0
  2 33  2  0  0  0  0
  3  1  1  0  0  0  0
  3  5  1  0  0  0  0
  4  3  2  0  0  0  0
  6  7  2  0  0  0  0
  6  4  1  0  0  0  0
  7  9  1  0  0  0  0
  8  6  1  0  0  0  0
  9 11  1  0  0  0  0
  9  1  2  0  0  0  0
 10 82  2  0  0  0  0
 10  7  1  0  0  0  0
 12  4  1  0  0  0  0
 12138  1  1  0  0  0
 13 10  1  0  0  0  0
 15 16  1  0  0  0  0
 16132  1  0  0  0  0
 16 30  2  0  0  0  0
 17 19  1  0  0  0  0
 17 15  1  0  0  0  0
 18 17  2  0  0  0  0
 20 21  2  0  0  0  0
 20 18  1  0  0  0  0
 21 23  1  0  0  0  0
 22 20  1  0  0  0  0
 23 25  1  0  0  0  0
 23 15  2  0  0  0  0
 24134  1  6  0  0  0
 24111  1  0  0  0  0
 24 21  1  0  0  0  0
 26 18  1  0  0  0  0
 26 27  1  0  0  0  0
 28 31  1  6  0  0  0
 28 32  1  0  0  0  0
 29 34  1  6  0  0  0
 29 28  1  0  0  0  0
 29 35  1  0  0  0  0
 30 28  1  0  0  0  0
 32 36  1  0  0  0  0
 32 38  1  0  0  0  0
 33 29  1  0  0  0  0
 35 39  1  0  0  0  0
 35 41  1  0  0  0  0
 37 32  1  0  0  0  0
 37 47  1  0  0  0  0
 38 42  1  0  0  0  0
 38 43  1  0  0  0  0
 40 35  1  0  0  0  0
 40 53  1  0  0  0  0
 41 48  1  0  0  0  0
 41 49  1  0  0  0  0
 44 38  1  0  0  0  0
 45 37  1  0  0  0  0
 46 37  1  0  0  0  0
 50 41  1  0  0  0  0
 51 40  1  0  0  0  0
 52 40  1  0  0  0  0
 54 56  1  0  0  0  0
 54 57  1  1  0  0  0
 55 60  1  6  0  0  0
 55 54  1  0  0  0  0
 55 59  1  0  0  0  0
 56 12  1  0  0  0  0
 58 63  1  0  0  0  0
 58 54  1  0  0  0  0
 59136  1  0  0  0  0
 59 12  1  0  0  0  0
 61 66  1  0  0  0  0
 61 65  1  0  0  0  0
 61 55  1  0  0  0  0
 62 58  1  0  0  0  0
 63 71  1  0  0  0  0
 63 72  1  0  0  0  0
 64 58  1  0  0  0  0
 64 70  1  0  0  0  0
 66 77  1  0  0  0  0
 67 61  1  0  0  0  0
 68 64  1  0  0  0  0
 69 64  1  0  0  0  0
 73 63  1  0  0  0  0
 74 67  1  0  0  0  0
 75 67  1  0  0  0  0
 76 67  1  0  0  0  0
 78 66  1  0  0  0  0
 79 66  1  0  0  0  0
 80 83  1  6  0  0  0
 80 81  1  0  0  0  0
 80 82  1  0  0  0  0
 81 85  1  0  0  0  0
 81 86  1  1  0  0  0
 84 88  1  0  0  0  0
 84 80  1  0  0  0  0
 85 26  2  0  0  0  0
 87 92  1  0  0  0  0
 87 81  1  0  0  0  0
 89 84  1  0  0  0  0
 89 97  1  0  0  0  0
 90 84  1  0  0  0  0
 91 87  1  0  0  0  0
 92103  1  0  0  0  0
 92104  1  0  0  0  0
 93 87  1  0  0  0  0
 93102  1  0  0  0  0
 94 90  1  0  0  0  0
 95 90  1  0  0  0  0
 96 90  1  0  0  0  0
 98 89  1  0  0  0  0
 99 89  1  0  0  0  0
100 93  1  0  0  0  0
101 93  1  0  0  0  0
105 92  1  0  0  0  0
106109  1  1  0  0  0
107112  1  6  0  0  0
107106  1  0  0  0  0
107111  1  0  0  0  0
107113  1  0  0  0  0
108 24  1  0  0  0  0
108106  1  0  0  0  0
110106  1  0  0  0  0
110116  1  0  0  0  0
111135  1  0  0  0  0
113118  1  0  0  0  0
113117  1  0  0  0  0
114110  1  0  0  0  0
115110  1  0  0  0  0
115124  1  0  0  0  0
116120  1  0  0  0  0
116122  1  0  0  0  0
118131  1  0  0  0  0
118129  1  0  0  0  0
119127  1  0  0  0  0
119113  1  0  0  0  0
121116  1  0  0  0  0
123115  1  0  0  0  0
125115  1  0  0  0  0
126119  1  0  0  0  0
128119  1  0  0  0  0
130118  1  0  0  0  0
133108  1  0  0  0  0
137 56  1  0  0  0  0
M  END
