
     RDKit          3D

  0  0  0  0  0  0  0  0  0  0999 V3000
M  V30 BEGIN CTAB
M  V30 COUNTS 111 113 0 0 0
M  V30 BEGIN ATOM
M  V30 1 C -3.2487 1.2422 0.4723 0
M  V30 2 C -2.8764 0.3859 1.5884 0
M  V30 3 C -2.6988 2.5144 0.3747 0
M  V30 4 C -2.9145 3.2943 -0.7621 0
M  V30 5 H -2.0752 2.9115 1.1628 0
M  V30 6 C -3.6728 2.7908 -1.8111 0
M  V30 7 C -4.2139 1.5080 -1.7363 0
M  V30 8 H -3.8189 3.3597 -2.7164 0
M  V30 9 C -4.0145 0.7515 -0.5863 0
M  V30 10 C -4.7984 0.8974 -2.9216 0
M  V30 11 H -4.4086 -0.2504 -0.5077 0
M  V30 12 C -2.2656 4.6030 -0.8797 0
M  V30 13 H -5.0868 -0.1596 -2.8241 0
M  V30 14 H -2.1651 0.8301 2.3011 0
M  V30 15 C -0.8156 -0.4704 -1.1102 0
M  V30 16 C -1.2660 -1.5279 -0.2198 0
M  V30 17 C -1.4382 -0.3177 -2.3433 0
M  V30 18 C -1.1556 0.7794 -3.1564 0
M  V30 19 H -2.1776 -1.0268 -2.6825 0
M  V30 20 C -0.2122 1.7090 -2.7352 0
M  V30 21 C 0.4496 1.5513 -1.5165 0
M  V30 22 H 0.0254 2.5714 -3.3396 0
M  V30 23 C 0.1345 0.4670 -0.7057 0
M  V30 24 C 1.4741 2.5003 -1.1001 0
M  V30 25 H 0.6076 0.3378 0.2559 0
M  V30 26 C -1.9191 1.0003 -4.3765 0
M  V30 27 H -1.7279 1.9530 -4.8941 0
M  V30 28 C -1.5798 -2.5247 1.8499 0
M  V30 29 C -2.6266 -1.6684 2.6396 0
M  V30 30 N -0.8843 -1.6247 0.9791 0
M  V30 31 H -2.1473 -3.2704 1.2679 0
M  V30 32 C -0.5768 -3.2533 2.7604 0
M  V30 33 N -3.2550 -0.8138 1.6794 0
M  V30 34 H -2.0676 -1.0768 3.3838 0
M  V30 35 C -3.6861 -2.5175 3.3631 0
M  V30 36 H -1.1385 -3.8262 3.5053 0
M  V30 37 C 0.2340 -4.2315 1.9099 0
M  V30 38 C -4.4853 -1.6120 4.3006 0
M  V30 39 C -4.6300 -3.2175 2.3893 0
M  V30 40 O -1.4932 5.0675 -0.0782 0
M  V30 41 C -5.0816 0.7879 -5.2273 0
M  V30 42 C -3.6693 0.5209 -5.8488 0
M  V30 43 N -4.8404 1.5141 -4.0208 0
M  V30 44 H -5.5377 -0.1942 -5.0166 0
M  V30 45 C -6.0056 1.5878 -6.1611 0
M  V30 46 N -2.7946 0.1822 -4.7686 0
M  V30 47 H -3.3455 1.4532 -6.3425 0
M  V30 48 C -3.6862 -0.6175 -6.8865 0
M  V30 49 H -5.9559 1.1408 -7.1597 0
M  V30 50 C -7.4426 1.4802 -5.6516 0
M  V30 51 H -4.5358 -0.4549 -7.5580 0
M  V30 52 C -2.3997 -0.5632 -7.7099 0
M  V30 53 C 2.3582 5.8487 -1.3391 0
M  V30 54 C 2.8474 4.3648 -1.4197 0
M  V30 55 N 1.0389 6.0805 -1.8986 0
M  V30 56 H 3.0484 6.4537 -1.9436 0
M  V30 57 C 2.4056 6.4273 0.0895 0
M  V30 58 N 1.7673 3.5093 -1.7944 0
M  V30 59 H 3.2694 4.0654 -0.4451 0
M  V30 60 C 3.9760 4.2004 -2.4672 0
M  V30 61 H 1.9004 7.3967 0.0195 0
M  V30 62 C 1.6588 5.5878 1.1247 0
M  V30 63 H 4.7336 4.9590 -2.2397 0
M  V30 64 C 4.6230 2.8224 -2.3395 0
M  V30 65 H -2.0363 -2.1930 -0.6399 0
M  V30 66 H 0.9494 5.5717 -2.7713 0
M  V30 67 H 1.9913 2.2569 -0.1582 0
M  V30 68 H -2.5246 5.1540 -1.8037 0
M  V30 69 C 0.3623 -2.2855 3.4751 0
M  V30 70 H -3.1698 -3.2706 3.9671 0
M  V30 71 C -5.5975 3.0556 -6.2527 0
M  V30 72 C -3.8253 -1.9891 -6.2318 0
M  V30 73 C 3.8457 6.6685 0.5389 0
M  V30 74 C 3.4679 4.4135 -3.8902 0
M  V30 75 H 0.3255 5.7239 -1.2711 0
M  V30 76 H -4.1071 -3.9643 1.7977 0
M  V30 77 H -5.0712 -2.4863 1.7181 0
M  V30 78 H -5.4243 -3.7180 2.9384 0
M  V30 79 H -0.4189 -4.9460 1.4125 0
M  V30 80 H 0.9362 -4.7832 2.5306 0
M  V30 81 H 0.7927 -3.6877 1.1512 0
M  V30 82 H 1.1362 -2.8398 4.0013 0
M  V30 83 H -0.1710 -1.6792 4.2025 0
M  V30 84 H 0.8303 -1.6284 2.7480 0
M  V30 85 H -4.9999 -0.8442 3.7268 0
M  V30 86 H -3.8307 -1.1250 5.0206 0
M  V30 87 H -5.2256 -2.1910 4.8477 0
M  V30 88 H 2.1672 4.6447 1.3142 0
M  V30 89 H 0.6435 5.3761 0.8022 0
M  V30 90 H 1.6062 6.1326 2.0650 0
M  V30 91 H 3.8941 2.0394 -2.5410 0
M  V30 92 H 5.0224 2.6730 -1.3379 0
M  V30 93 H 5.4396 2.7225 -3.0510 0
M  V30 94 H 3.8583 7.1315 1.5231 0
M  V30 95 H 4.3608 7.3279 -0.1562 0
M  V30 96 H 4.3997 5.7338 0.5973 0
M  V30 97 H 3.0287 5.4010 -4.0032 0
M  V30 98 H 2.7151 3.6670 -4.1299 0
M  V30 99 H 4.2897 4.3205 -4.5972 0
M  V30 100 H -7.7690 0.4424 -5.6267 0
M  V30 101 H -8.1173 2.0361 -6.2982 0
M  V30 102 H -7.5115 1.8891 -4.6457 0
M  V30 103 H -1.5359 -0.6936 -7.0613 0
M  V30 104 H -2.3070 0.3922 -8.2224 0
M  V30 105 H -2.3941 -1.3541 -8.4563 0
M  V30 106 H -4.7636 -2.0760 -5.6908 0
M  V30 107 H -3.0083 -2.1478 -5.5337 0
M  V30 108 H -3.7983 -2.7669 -6.9917 0
M  V30 109 H -5.6128 3.5033 -5.2633 0
M  V30 110 H -6.2903 3.5936 -6.8957 0
M  V30 111 H -4.5980 3.1637 -6.6648 0
M  V30 END ATOM
M  V30 BEGIN BOND
M  V30 1 1 1 2
M  V30 2 1 2 14
M  V30 3 2 2 33
M  V30 4 1 3 1
M  V30 5 1 3 5
M  V30 6 2 4 3
M  V30 7 2 6 7
M  V30 8 1 6 4
M  V30 9 1 7 9
M  V30 10 1 8 6
M  V30 11 1 9 11
M  V30 12 2 9 1
M  V30 13 2 10 43
M  V30 14 1 10 7
M  V30 15 1 12 4
M  V30 16 1 12 68
M  V30 17 1 13 10
M  V30 18 1 15 16
M  V30 19 1 16 65
M  V30 20 2 16 30
M  V30 21 1 17 19
M  V30 22 1 17 15
M  V30 23 2 18 17
M  V30 24 2 20 21
M  V30 25 1 20 18
M  V30 26 1 21 23
M  V30 27 1 22 20
M  V30 28 1 23 25
M  V30 29 2 23 15
M  V30 30 2 24 58
M  V30 31 1 24 21
M  V30 32 1 26 27
M  V30 33 1 26 18
M  V30 34 1 28 31
M  V30 35 1 28 32
M  V30 36 1 29 34
M  V30 37 1 29 28
M  V30 38 1 29 35
M  V30 39 1 30 28
M  V30 40 1 32 69
M  V30 41 1 32 37
M  V30 42 1 33 29
M  V30 43 1 35 39
M  V30 44 1 36 32
M  V30 45 1 37 79
M  V30 46 1 37 81
M  V30 47 1 37 80
M  V30 48 1 38 35
M  V30 49 1 38 86
M  V30 50 1 38 87
M  V30 51 1 39 76
M  V30 52 1 39 78
M  V30 53 1 39 77
M  V30 54 2 40 12
M  V30 55 1 41 44
M  V30 56 1 41 42
M  V30 57 1 41 43
M  V30 58 1 42 46
M  V30 59 1 42 47
M  V30 60 1 45 41
M  V30 61 1 45 49
M  V30 62 2 46 26
M  V30 63 1 48 42
M  V30 64 1 48 72
M  V30 65 1 50 101
M  V30 66 1 50 45
M  V30 67 1 51 48
M  V30 68 1 52 104
M  V30 69 1 52 48
M  V30 70 1 53 54
M  V30 71 1 53 56
M  V30 72 1 54 59
M  V30 73 1 54 58
M  V30 74 1 54 60
M  V30 75 1 55 53
M  V30 76 1 55 75
M  V30 77 1 57 62
M  V30 78 1 57 53
M  V30 79 1 60 74
M  V30 80 1 60 63
M  V30 81 1 61 57
M  V30 82 1 62 89
M  V30 83 1 64 92
M  V30 84 1 64 60
M  V30 85 1 64 93
M  V30 86 1 66 55
M  V30 87 1 67 24
M  V30 88 1 69 83
M  V30 89 1 69 84
M  V30 90 1 70 35
M  V30 91 1 71 45
M  V30 92 1 71 111
M  V30 93 1 72 107
M  V30 94 1 72 108
M  V30 95 1 73 57
M  V30 96 1 73 95
M  V30 97 1 74 99
M  V30 98 1 74 98
M  V30 99 1 82 69
M  V30 100 1 85 38
M  V30 101 1 88 62
M  V30 102 1 90 62
M  V30 103 1 91 64
M  V30 104 1 94 73
M  V30 105 1 96 73
M  V30 106 1 97 74
M  V30 107 1 100 50
M  V30 108 1 102 50
M  V30 109 1 103 52
M  V30 110 1 105 52
M  V30 111 1 106 72
M  V30 112 1 109 71
M  V30 113 1 110 71
M  V30 END BOND
M  V30 END CTAB
M  END

$$$$
