
     RDKit          3D

  0  0  0  0  0  0  0  0  0  0999 V3000
M  V30 BEGIN CTAB
M  V30 COUNTS 66 68 0 0 0
M  V30 BEGIN ATOM
M  V30 1 C -4.0063 -1.3784 -1.2704 0
M  V30 2 C -4.7277 -0.9629 -0.0779 0
M  V30 3 C -3.2907 -2.5744 -1.3050 0
M  V30 4 C -2.5271 -2.9086 -2.4182 0
M  V30 5 H -3.3398 -3.2274 -0.4469 0
M  V30 6 C -2.4462 -2.0146 -3.4872 0
M  V30 7 C -3.1562 -0.8203 -3.4672 0
M  V30 8 H -1.8202 -2.2745 -4.3272 0
M  V30 9 C -3.9565 -0.5230 -2.3649 0
M  V30 10 C -2.9986 0.1551 -4.5377 0
M  V30 11 H -4.5077 0.4041 -2.3709 0
M  V30 12 C -1.8036 -4.1715 -2.4517 0
M  V30 13 H -2.1417 -0.0111 -5.2089 0
M  V30 14 H -5.3335 -0.0516 -0.1891 0
M  V30 15 H -1.8981 -4.8011 -1.5531 0
M  V30 16 C -1.6898 1.4545 0.5487 0
M  V30 17 C -2.2865 0.7075 1.6470 0
M  V30 18 C -2.4972 2.0057 -0.4430 0
M  V30 19 C -1.9369 2.6006 -1.5696 0
M  V30 20 H -3.5670 1.9279 -0.3291 0
M  V30 21 C -0.5520 2.6976 -1.6731 0
M  V30 22 C 0.2687 2.1951 -0.6663 0
M  V30 23 H -0.1098 3.1607 -2.5398 0
M  V30 24 C -0.3065 1.5533 0.4291 0
M  V30 25 C 1.7183 2.3115 -0.7591 0
M  V30 26 H 0.3285 1.1309 1.1963 0
M  V30 27 C -2.8138 3.0220 -2.6516 0
M  V30 28 H 2.2903 1.8610 0.0680 0
M  V30 29 H -3.8892 3.0042 -2.4181 0
M  V30 30 C -4.0884 -0.1145 2.8779 0
M  V30 31 C -5.1941 -0.9426 2.1831 0
M  V30 32 N -3.5196 0.7604 1.9044 0
M  V30 33 N -4.6195 -1.5617 1.0286 0
M  V30 34 C -0.4497 -5.7809 -3.4662 0
M  V30 35 C -1.0394 -6.6493 -4.6025 0
M  V30 36 N -1.1123 -4.5189 -3.4481 0
M  V30 37 N -0.9327 -6.0701 -5.9217 0
M  V30 38 C -3.4747 2.1696 -5.6115 0
M  V30 39 C -3.3431 3.5069 -4.8465 0
M  V30 40 N -3.7658 1.1482 -4.6580 0
M  V30 41 N -2.3858 3.3216 -3.8004 0
M  V30 42 C 4.1832 2.2840 -3.0732 0
M  V30 43 C 3.7009 2.9799 -1.7951 0
M  V30 44 N 4.0190 0.8461 -2.9327 0
M  V30 45 N 2.2780 2.8999 -1.7231 0
M  V30 46 H -1.5962 0.0625 2.2139 0
M  V30 47 H -1.4017 -5.1701 -5.9299 0
M  V30 48 H 0.0418 -5.9061 -6.1541 0
M  V30 49 H 3.0365 0.6290 -2.7941 0
M  V30 50 H 4.3235 0.3729 -3.7764 0
M  V30 51 H -4.3355 3.7843 -4.4594 0
M  V30 52 H -2.9788 4.2762 -5.5300 0
M  V30 53 H -2.5487 1.9702 -6.1736 0
M  V30 54 H -4.3142 2.2502 -6.3075 0
M  V30 55 H -2.0999 -6.8207 -4.3977 0
M  V30 56 H -0.5266 -7.6150 -4.6049 0
M  V30 57 H -0.5323 -6.3236 -2.5093 0
M  V30 58 H 0.6081 -5.5941 -3.6819 0
M  V30 59 H -6.0222 -0.2661 1.9235 0
M  V30 60 H -5.5439 -1.7188 2.8665 0
M  V30 61 H -3.3423 -0.7910 3.3245 0
M  V30 62 H -4.5509 0.4880 3.6645 0
M  V30 63 H 5.2486 2.4874 -3.2104 0
M  V30 64 H 3.6304 2.7094 -3.9255 0
M  V30 65 H 3.9658 4.0398 -1.8540 0
M  V30 66 H 4.1991 2.5237 -0.9248 0
M  V30 END ATOM
M  V30 BEGIN BOND
M  V30 1 1 1 2
M  V30 2 1 2 14
M  V30 3 2 2 33
M  V30 4 1 3 1
M  V30 5 1 3 5
M  V30 6 2 4 3
M  V30 7 2 6 7
M  V30 8 1 6 4
M  V30 9 1 7 9
M  V30 10 1 8 6
M  V30 11 1 9 11
M  V30 12 2 9 1
M  V30 13 2 10 40
M  V30 14 1 10 7
M  V30 15 1 12 4
M  V30 16 1 12 15
M  V30 17 1 13 10
M  V30 18 1 16 17
M  V30 19 1 17 46
M  V30 20 2 17 32
M  V30 21 1 18 20
M  V30 22 1 18 16
M  V30 23 2 19 18
M  V30 24 2 21 22
M  V30 25 1 21 19
M  V30 26 1 22 24
M  V30 27 1 23 21
M  V30 28 1 24 26
M  V30 29 2 24 16
M  V30 30 2 25 45
M  V30 31 1 25 22
M  V30 32 1 27 19
M  V30 33 1 27 29
M  V30 34 1 28 25
M  V30 35 1 30 61
M  V30 36 1 30 62
M  V30 37 1 31 59
M  V30 38 1 31 30
M  V30 39 1 31 60
M  V30 40 1 32 30
M  V30 41 1 33 31
M  V30 42 1 34 36
M  V30 43 1 34 58
M  V30 44 1 35 34
M  V30 45 1 35 37
M  V30 46 2 36 12
M  V30 47 1 37 48
M  V30 48 1 38 39
M  V30 49 1 38 40
M  V30 50 1 39 41
M  V30 51 1 39 51
M  V30 52 2 41 27
M  V30 53 1 42 63
M  V30 54 1 43 42
M  V30 55 1 43 66
M  V30 56 1 43 45
M  V30 57 1 44 50
M  V30 58 1 44 42
M  V30 59 1 47 37
M  V30 60 1 49 44
M  V30 61 1 52 39
M  V30 62 1 53 38
M  V30 63 1 54 38
M  V30 64 1 55 35
M  V30 65 1 56 35
M  V30 66 1 57 34
M  V30 67 1 64 42
M  V30 68 1 65 43
M  V30 END BOND
M  V30 END CTAB
M  END

$$$$
