
     RDKit          3D

  0  0  0  0  0  0  0  0  0  0999 V3000
M  V30 BEGIN CTAB
M  V30 COUNTS 87 92 0 0 0
M  V30 BEGIN ATOM
M  V30 1 C -3.5553 -1.6797 -0.7664 0
M  V30 2 C -3.8446 -1.2816 0.6026 0
M  V30 3 C -2.7189 -2.7583 -1.0475 0
M  V30 4 C -2.3659 -3.0454 -2.3619 0
M  V30 5 H -2.3457 -3.3516 -0.2267 0
M  V30 6 C -2.8178 -2.2271 -3.3988 0
M  V30 7 C -3.6593 -1.1537 -3.1327 0
M  V30 8 H -2.5007 -2.4498 -4.4076 0
M  V30 9 C -4.0434 -0.9068 -1.8155 0
M  V30 10 C -4.0550 -0.2336 -4.1917 0
M  V30 11 H -4.7024 -0.0734 -1.6284 0
M  V30 12 C -1.4918 -4.1872 -2.6655 0
M  V30 13 H -3.4435 -0.2759 -5.1062 0
M  V30 14 H -4.5737 -0.4651 0.7101 0
M  V30 15 C -1.2342 1.6456 0.0213 0
M  V30 16 C -1.2258 0.8695 1.2536 0
M  V30 17 C -2.4458 1.9754 -0.5842 0
M  V30 18 C -2.4751 2.5780 -1.8366 0
M  V30 19 H -3.3585 1.7164 -0.0709 0
M  V30 20 C -1.2748 2.9131 -2.4617 0
M  V30 21 C -0.0583 2.6368 -1.8473 0
M  V30 22 H -1.3143 3.3799 -3.4340 0
M  V30 23 C -0.0452 1.9797 -0.6160 0
M  V30 24 C 1.1908 3.0064 -2.4999 0
M  V30 25 H 0.9106 1.7438 -0.1734 0
M  V30 26 C -3.7538 2.7503 -2.5062 0
M  V30 27 H -4.6387 2.5336 -1.8880 0
M  V30 28 C -2.2410 -0.1802 3.0711 0
M  V30 29 C -3.4299 -1.1548 2.8712 0
M  V30 30 N -2.2541 0.7309 1.9703 0
M  V30 31 H -1.3064 -0.7692 3.0985 0
M  V30 32 C -2.4193 0.5497 4.4028 0
M  V30 33 N -3.2456 -1.7772 1.5970 0
M  V30 34 H -4.3530 -0.5490 2.8933 0
M  V30 35 C -3.4444 -2.1763 4.0032 0
M  V30 36 H -3.3436 1.1287 4.3676 0
M  V30 37 C -2.4634 -0.4552 5.5498 0
M  V30 38 H -2.5165 -2.7496 3.9725 0
M  V30 39 C -3.5881 -1.4670 5.3462 0
M  V30 40 H -2.6064 0.0738 6.4941 0
M  V30 41 H -1.5081 -0.9827 5.6027 0
M  V30 42 H -3.5763 -2.2014 6.1539 0
M  V30 43 H -4.5497 -0.9493 5.3787 0
M  V30 44 O -1.1114 -4.5005 -3.7643 0
M  V30 45 C -5.2302 1.5891 -5.0431 0
M  V30 46 C -5.1471 2.9662 -4.3366 0
M  V30 47 N -4.9962 0.5923 -4.0468 0
M  V30 48 H -4.4620 1.5566 -5.8365 0
M  V30 49 C -6.6165 1.4361 -5.6694 0
M  V30 50 N -3.8545 3.0477 -3.7288 0
M  V30 51 H -5.9507 2.9920 -3.5789 0
M  V30 52 C -5.3582 4.0744 -5.3628 0
M  V30 53 H -7.3673 1.4689 -4.8781 0
M  V30 54 C -6.8601 2.5511 -6.6815 0
M  V30 55 H -4.5640 4.0190 -6.1089 0
M  V30 56 C -6.7238 3.9227 -6.0255 0
M  V30 57 H -6.1339 2.4650 -7.4931 0
M  V30 58 H -7.8576 2.4426 -7.1119 0
M  V30 59 H -6.8593 4.7060 -6.7737 0
M  V30 60 H -7.5052 4.0414 -5.2712 0
M  V30 61 C 4.2898 1.8233 -3.0176 0
M  V30 62 C 3.5210 3.1079 -2.6550 0
M  V30 63 N 3.5229 1.0948 -4.0184 0
M  V30 64 H 4.4298 1.2478 -2.0844 0
M  V30 65 C 5.6565 2.1756 -3.6035 0
M  V30 66 N 2.3117 2.7372 -1.9883 0
M  V30 67 H 3.3226 3.6612 -3.5901 0
M  V30 68 C 4.3516 3.9700 -1.6991 0
M  V30 69 H 5.4978 2.7082 -4.5428 0
M  V30 70 C 6.4698 3.0365 -2.6444 0
M  V30 71 H 4.4857 3.4168 -0.7678 0
M  V30 72 C 5.7065 4.3119 -2.3052 0
M  V30 73 H 7.4321 3.2839 -3.0967 0
M  V30 74 H 6.6637 2.4757 -1.7270 0
M  V30 75 H 6.2805 4.9173 -1.6008 0
M  V30 76 H 5.5608 4.9000 -3.2141 0
M  V30 77 H -0.2737 0.3686 1.4896 0
M  V30 78 H 2.6071 0.8577 -3.6512 0
M  V30 79 H 1.0915 3.5321 -3.4617 0
M  V30 80 H -1.1936 -4.7674 -1.7697 0
M  V30 81 H -1.5899 1.2469 4.5402 0
M  V30 82 H -4.2735 -2.8696 3.8495 0
M  V30 83 H -6.6821 0.4605 -6.1561 0
M  V30 84 H -5.2837 5.0424 -4.8636 0
M  V30 85 H 6.1959 1.2529 -3.8299 0
M  V30 86 H 3.7944 4.8810 -1.4707 0
M  V30 87 H 3.9943 0.2298 -4.2603 0
M  V30 END ATOM
M  V30 BEGIN BOND
M  V30 1 1 1 2
M  V30 2 1 2 14
M  V30 3 2 2 33
M  V30 4 1 3 1
M  V30 5 1 3 5
M  V30 6 2 4 3
M  V30 7 2 6 7
M  V30 8 1 6 4
M  V30 9 1 7 9
M  V30 10 1 8 6
M  V30 11 1 9 11
M  V30 12 2 9 1
M  V30 13 2 10 47
M  V30 14 1 10 7
M  V30 15 1 12 4
M  V30 16 1 12 80
M  V30 17 1 13 10
M  V30 18 1 15 16
M  V30 19 1 16 77
M  V30 20 2 16 30
M  V30 21 1 17 19
M  V30 22 1 17 15
M  V30 23 2 18 17
M  V30 24 2 20 21
M  V30 25 1 20 18
M  V30 26 1 21 23
M  V30 27 1 22 20
M  V30 28 1 23 25
M  V30 29 2 23 15
M  V30 30 2 24 66
M  V30 31 1 24 21
M  V30 32 1 26 27
M  V30 33 1 26 18
M  V30 34 1 28 31
M  V30 35 1 28 32
M  V30 36 1 29 34
M  V30 37 1 29 28
M  V30 38 1 29 35
M  V30 39 1 30 28
M  V30 40 1 32 81
M  V30 41 1 32 37
M  V30 42 1 33 29
M  V30 43 1 35 39
M  V30 44 1 36 32
M  V30 45 1 37 41
M  V30 46 1 37 40
M  V30 47 1 38 35
M  V30 48 1 39 43
M  V30 49 1 39 37
M  V30 50 1 39 42
M  V30 51 2 44 12
M  V30 52 1 45 48
M  V30 53 1 45 46
M  V30 54 1 45 47
M  V30 55 1 46 50
M  V30 56 1 46 51
M  V30 57 1 49 45
M  V30 58 1 49 53
M  V30 59 2 50 26
M  V30 60 1 52 84
M  V30 61 1 52 46
M  V30 62 1 54 56
M  V30 63 1 54 49
M  V30 64 1 55 52
M  V30 65 1 56 52
M  V30 66 1 56 60
M  V30 67 1 57 54
M  V30 68 1 58 54
M  V30 69 1 59 56
M  V30 70 1 61 62
M  V30 71 1 61 64
M  V30 72 1 62 67
M  V30 73 1 62 66
M  V30 74 1 62 68
M  V30 75 1 63 87
M  V30 76 1 63 61
M  V30 77 1 65 61
M  V30 78 1 65 70
M  V30 79 1 68 86
M  V30 80 1 68 71
M  V30 81 1 69 65
M  V30 82 1 70 72
M  V30 83 1 70 74
M  V30 84 1 72 68
M  V30 85 1 72 75
M  V30 86 1 73 70
M  V30 87 1 76 72
M  V30 88 1 78 63
M  V30 89 1 79 24
M  V30 90 1 82 35
M  V30 91 1 83 49
M  V30 92 1 85 65
M  V30 END BOND
M  V30 END CTAB
M  END

$$$$
