66

C -2.267000 -2.068100 -1.441700
C -1.673900 -1.610700 -0.190600
C -2.295700 -3.431000 -1.747300
C -2.864300 -3.876200 -2.927900
H -1.883000 -4.135200 -1.043300
C -3.390600 -2.958400 -3.825500
C -3.354700 -1.593800 -3.546300
H -3.831300 -3.318500 -4.743400
C -2.799200 -1.154700 -2.344600
C -3.855000 -0.640700 -4.527800
H -2.781000 -0.094000 -2.143600
C -2.897000 -5.355700 -3.252400
H -4.322800 -1.075200 -5.427100
H -1.845000 -0.553700 0.064200
C 0.710900 0.811800 -1.429600
C 0.979300 -0.380400 -0.638000
C 0.124000 0.667500 -2.681400
C -0.304400 1.785100 -3.390500
H -0.059600 -0.322600 -3.076500
C -0.073200 3.057900 -2.872400
C 0.560200 3.212100 -1.647000
H -0.397500 3.918000 -3.435400
C 0.932700 2.089900 -0.919500
C 0.819800 4.585400 -1.096600
H 1.396400 2.193800 0.048300
C -1.093100 1.573900 -4.592100
H -1.028400 0.560300 -5.019700
C 1.091900 -1.537500 1.372300
C -0.371100 -1.909000 1.723200
N 1.053400 -0.327200 0.621600
N -1.011900 -2.395000 0.546700
C -4.416200 -6.096500 -1.698000
C -5.144600 -5.783000 -3.042800
N -2.994900 -6.131700 -2.019700
N -4.090100 -5.660600 -4.043100
C -4.089500 1.540800 -5.365100
C -2.801500 2.043700 -6.064600
N -3.722700 0.601100 -4.358100
N -1.875700 2.449400 -5.054300
C 0.648600 6.051900 0.668100
C 0.018200 6.687000 -0.613400
N 0.813400 4.637200 0.366700
N -0.134700 5.592600 -1.561200
H 1.046200 -1.326200 -1.197500
H 0.016600 4.106300 0.710200
H 1.817800 4.926900 -1.417600
H -1.073700 5.205200 -1.508000
H -3.960700 -6.544600 -4.526500
H -2.693400 -7.086400 -2.189500
H -1.988000 -5.616300 -3.805900
H 0.702800 7.422800 -1.043400
H -0.935900 7.174300 -0.415300
H 0.033700 6.197800 1.555700
H 1.636200 6.482300 0.853700
H -5.665900 -4.825400 -2.972500
H -5.863200 -6.553000 -3.321800
H -4.587300 -5.289900 -0.981500
H -4.742400 -7.035800 -1.252800
H -0.857800 -1.015800 2.143100
H -0.362800 -2.715200 2.459900
H 1.538900 -2.378500 0.821500
H 1.642700 -1.354600 2.296900
H -3.045600 2.901900 -6.693700
H -2.408800 1.223000 -6.688000
H -4.763700 1.123400 -6.131000
H -4.568600 2.385200 -4.864200
