
 OpenBabel02282012053D

 57 59  0  0  0  0  0  0  0  0999 V2000
   -3.5474   -1.8759   -0.8959 C   0  0  0  0  0  0  0  0  0  0  0  0
   -3.8918   -1.4487    0.4760 C   0  0  0  0  0  0  0  0  0  0  0  0
   -2.6294   -2.9062   -1.1522 C   0  0  0  0  0  0  0  0  0  0  0  0
   -2.2702   -3.2251   -2.4719 C   0  0  0  0  0  0  0  0  0  0  0  0
   -2.1848   -3.4513   -0.3280 H   0  0  0  0  0  0  0  0  0  0  0  0
   -2.8205   -2.4886   -3.5374 C   0  0  0  0  0  0  0  0  0  0  0  0
   -3.7365   -1.4553   -3.2925 C   0  0  0  0  0  0  0  0  0  0  0  0
   -2.5231   -2.7056   -4.5566 H   0  0  0  0  0  0  0  0  0  0  0  0
   -4.1068   -1.1685   -1.9690 C   0  0  0  0  0  0  0  0  0  0  0  0
   -4.2263   -0.6194   -4.4138 C   0  0  0  0  0  0  0  0  0  0  0  0
   -4.7915   -0.3535   -1.7651 H   0  0  0  0  0  0  0  0  0  0  0  0
   -1.2952   -4.3087   -2.7175 C   0  0  0  0  0  0  0  0  0  0  0  0
   -3.7726   -0.7422   -5.3945 H   0  0  0  0  0  0  0  0  0  0  0  0
   -4.6347   -0.6611    0.5886 H   0  0  0  0  0  0  0  0  0  0  0  0
   -1.2007    1.5877    0.0112 C   0  0  0  0  0  0  0  0  0  0  0  0
   -1.1688    0.9176    1.3318 C   0  0  0  0  0  0  0  0  0  0  0  0
   -2.4203    1.8775   -0.6195 C   0  0  0  0  0  0  0  0  0  0  0  0
   -2.4515    2.3951   -1.9220 C   0  0  0  0  0  0  0  0  0  0  0  0
   -3.3537    1.6478   -0.1189 H   0  0  0  0  0  0  0  0  0  0  0  0
   -1.2447    2.6571   -2.5900 C   0  0  0  0  0  0  0  0  0  0  0  0
   -0.0148    2.4004   -1.9614 C   0  0  0  0  0  0  0  0  0  0  0  0
   -1.2605    3.0488   -3.6003 H   0  0  0  0  0  0  0  0  0  0  0  0
   -0.0022    1.8559   -0.6631 C   0  0  0  0  0  0  0  0  0  0  0  0
    1.2456    2.6806   -2.6839 C   0  0  0  0  0  0  0  0  0  0  0  0
    0.9394    1.6226   -0.1805 H   0  0  0  0  0  0  0  0  0  0  0  0
   -3.7682    2.5695   -2.5692 C   0  0  0  0  0  0  0  0  0  0  0  0
   -4.6553    2.3732   -1.9697 H   0  0  0  0  0  0  0  0  0  0  0  0
   -2.3423   -0.2277    3.1029 C   0  0  0  0  0  0  0  0  0  0  0  0
   -3.4412   -1.2609    2.8163 C   0  0  0  0  0  0  0  0  0  0  0  0
   -2.2641    0.6625    1.9616 N   0  0  0  0  0  0  0  0  0  0  0  0
   -1.3726   -0.7520    3.2599 H   0  0  0  0  0  0  0  0  0  0  0  0
   -3.2171   -1.8435    1.5040 N   0  0  0  0  0  0  0  0  0  0  0  0
   -4.4183   -0.7258    2.8417 H   0  0  0  0  0  0  0  0  0  0  0  0
   -0.9505   -4.6030   -3.8515 O   0  0  0  0  0  0  0  0  0  0  0  0
   -5.3761    1.3653   -5.1700 C   0  0  0  0  0  0  0  0  0  0  0  0
   -5.1870    2.7270   -4.4862 C   0  0  0  0  0  0  0  0  0  0  0  0
   -5.0659    0.3351   -4.1983 N   0  0  0  0  0  0  0  0  0  0  0  0
   -4.6966    1.2941   -6.0489 H   0  0  0  0  0  0  0  0  0  0  0  0
   -3.8851    2.7595   -3.8411 N   0  0  0  0  0  0  0  0  0  0  0  0
   -5.9979    2.8368   -3.7297 H   0  0  0  0  0  0  0  0  0  0  0  0
    3.6538    2.7180   -2.7779 C   0  0  0  0  0  0  0  0  0  0  0  0
    3.8594    4.2207   -3.0341 C   0  0  0  0  0  0  0  0  0  0  0  0
    2.3870    2.4484   -2.1316 N   0  0  0  0  0  0  0  0  0  0  0  0
    4.4692    2.3522   -2.1186 H   0  0  0  0  0  0  0  0  0  0  0  0
    3.8234    4.9935   -1.7936 N   0  0  0  0  0  0  0  0  0  0  0  0
    3.0818    4.6048   -3.7277 H   0  0  0  0  0  0  0  0  0  0  0  0
   -0.2202    0.5332    1.6996 H   0  0  0  0  0  0  0  0  0  0  0  0
    1.1990    3.0907   -3.6899 H   0  0  0  0  0  0  0  0  0  0  0  0
    4.5500    4.6358   -1.1319 H   0  0  0  0  0  0  0  0  0  0  0  0
   -0.8717   -4.8567   -1.8816 H   0  0  0  0  0  0  0  0  0  0  0  0
   -2.5942    0.3405    4.0232 H   0  0  0  0  0  0  0  0  0  0  0  0
   -3.4736   -2.0506    3.5958 H   0  0  0  0  0  0  0  0  0  0  0  0
   -6.4253    1.2663   -5.5204 H   0  0  0  0  0  0  0  0  0  0  0  0
   -5.2891    3.5653   -5.2069 H   0  0  0  0  0  0  0  0  0  0  0  0
    3.7117    2.1591   -3.7372 H   0  0  0  0  0  0  0  0  0  0  0  0
    4.8474    4.3680   -3.5204 H   0  0  0  0  0  0  0  0  0  0  0  0
    2.8819    4.9101   -1.3465 H   0  0  0  0  0  0  0  0  0  0  0  0
  1  2  1  0  0  0  0
  2 14  1  0  0  0  0
  2 32  2  0  0  0  0
  3  1  1  0  0  0  0
  3  5  1  0  0  0  0
  4  3  2  0  0  0  0
  6  7  2  0  0  0  0
  6  4  1  0  0  0  0
  7  9  1  0  0  0  0
  8  6  1  0  0  0  0
  9 11  1  0  0  0  0
  9  1  2  0  0  0  0
 10 37  2  0  0  0  0
 10  7  1  0  0  0  0
 12  4  1  0  0  0  0
 12 50  1  0  0  0  0
 13 10  1  0  0  0  0
 15 16  1  0  0  0  0
 16 47  1  0  0  0  0
 16 30  2  0  0  0  0
 17 19  1  0  0  0  0
 17 15  1  0  0  0  0
 18 17  2  0  0  0  0
 20 21  2  0  0  0  0
 20 18  1  0  0  0  0
 21 23  1  0  0  0  0
 22 20  1  0  0  0  0
 23 25  1  0  0  0  0
 23 15  2  0  0  0  0
 24 43  2  0  0  0  0
 24 21  1  0  0  0  0
 26 27  1  0  0  0  0
 26 18  1  0  0  0  0
 28 31  1  0  0  0  0
 28 51  1  0  0  0  0
 29 33  1  0  0  0  0
 29 28  1  0  0  0  0
 29 52  1  0  0  0  0
 30 28  1  0  0  0  0
 32 29  1  0  0  0  0
 34 12  2  0  0  0  0
 35 36  1  0  0  0  0
 35 37  1  0  0  0  0
 36 39  1  0  0  0  0
 36 40  1  0  0  0  0
 38 35  1  0  0  0  0
 39 26  2  0  0  0  0
 41 43  1  0  0  0  0
 41 44  1  0  0  0  0
 42 41  1  0  0  0  0
 42 45  1  0  0  0  0
 45 57  1  0  0  0  0
 45 49  1  0  0  0  0
 46 42  1  0  0  0  0
 48 24  1  0  0  0  0
 53 35  1  0  0  0  0
 54 36  1  0  0  0  0
 55 41  1  0  0  0  0
 56 42  1  0  0  0  0
M  END
