
 OpenBabel02282015493D

 48 50  0  0  0  0  0  0  0  0999 V2000
   -0.2799   -2.2412    0.4643 C   0  0  0  0  0  0  0  0  0  0  0  0
   -0.4737   -1.7674    1.8497 C   0  0  0  0  0  0  0  0  0  0  0  0
    0.5108   -3.3607    0.1629 C   0  0  0  0  0  0  0  0  0  0  0  0
    0.7261   -3.7351   -1.1738 C   0  0  0  0  0  0  0  0  0  0  0  0
    0.9691   -3.9323    0.9615 H   0  0  0  0  0  0  0  0  0  0  0  0
    0.1571   -2.9704   -2.2099 C   0  0  0  0  0  0  0  0  0  0  0  0
   -0.6363   -1.8523   -1.9159 C   0  0  0  0  0  0  0  0  0  0  0  0
    0.3414   -3.2369   -3.2442 H   0  0  0  0  0  0  0  0  0  0  0  0
   -0.8615   -1.5031   -0.5762 C   0  0  0  0  0  0  0  0  0  0  0  0
   -1.1591   -1.0074   -3.0164 C   0  0  0  0  0  0  0  0  0  0  0  0
   -1.4532   -0.6281   -0.3391 H   0  0  0  0  0  0  0  0  0  0  0  0
    1.5696   -4.9116   -1.4744 C   0  0  0  0  0  0  0  0  0  0  0  0
   -0.8149   -1.2003   -4.0302 H   0  0  0  0  0  0  0  0  0  0  0  0
   -1.0972   -0.8888    2.0040 H   0  0  0  0  0  0  0  0  0  0  0  0
    2.0659    1.3242    1.2256 C   0  0  0  0  0  0  0  0  0  0  0  0
    2.1465    0.6439    2.5404 C   0  0  0  0  0  0  0  0  0  0  0  0
    0.8288    1.5176    0.5936 C   0  0  0  0  0  0  0  0  0  0  0  0
    0.7600    2.0653   -0.6951 C   0  0  0  0  0  0  0  0  0  0  0  0
   -0.0828    1.2003    1.0842 H   0  0  0  0  0  0  0  0  0  0  0  0
    1.9404    2.4537   -1.3476 C   0  0  0  0  0  0  0  0  0  0  0  0
    3.1844    2.2864   -0.7173 C   0  0  0  0  0  0  0  0  0  0  0  0
    1.8957    2.8718   -2.3464 H   0  0  0  0  0  0  0  0  0  0  0  0
    3.2415    1.7118    0.5665 C   0  0  0  0  0  0  0  0  0  0  0  0
    4.4190    2.6919   -1.4227 C   0  0  0  0  0  0  0  0  0  0  0  0
    4.1998    1.5543    1.0477 H   0  0  0  0  0  0  0  0  0  0  0  0
   -0.5623    2.1543   -1.3470 C   0  0  0  0  0  0  0  0  0  0  0  0
   -1.4319    1.8290   -0.7791 H   0  0  0  0  0  0  0  0  0  0  0  0
    1.1019   -0.5615    4.3398 C   0  0  0  0  0  0  0  0  0  0  0  0
    0.0558   -1.6794    4.1692 C   0  0  0  0  0  0  0  0  0  0  0  0
    1.0761    0.3109    3.1805 N   0  0  0  0  0  0  0  0  0  0  0  0
    0.1594   -2.2829    2.8514 N   0  0  0  0  0  0  0  0  0  0  0  0
    1.7825   -5.2528   -2.6278 O   0  0  0  0  0  0  0  0  0  0  0  0
   -2.2532    0.9927   -3.7802 C   0  0  0  0  0  0  0  0  0  0  0  0
   -2.0039    2.4079   -3.2248 C   0  0  0  0  0  0  0  0  0  0  0  0
   -1.9193    0.0061   -2.7698 N   0  0  0  0  0  0  0  0  0  0  0  0
   -0.7004    2.4884   -2.5877 N   0  0  0  0  0  0  0  0  0  0  0  0
    5.5149    2.5475   -0.9029 O   0  0  0  0  0  0  0  0  0  0  0  0
    3.1234    0.3454    2.9142 H   0  0  0  0  0  0  0  0  0  0  0  0
    2.0101   -5.4839   -0.6640 H   0  0  0  0  0  0  0  0  0  0  0  0
    4.3582    3.1233   -2.4169 H   0  0  0  0  0  0  0  0  0  0  0  0
    0.1983   -2.4485    4.9575 H   0  0  0  0  0  0  0  0  0  0  0  0
   -0.9651   -1.2552    4.3055 H   0  0  0  0  0  0  0  0  0  0  0  0
    0.8746    0.0121    5.2633 H   0  0  0  0  0  0  0  0  0  0  0  0
    2.1080   -1.0245    4.4527 H   0  0  0  0  0  0  0  0  0  0  0  0
   -1.6231    0.8460   -4.6862 H   0  0  0  0  0  0  0  0  0  0  0  0
   -3.3196    0.9004   -4.0766 H   0  0  0  0  0  0  0  0  0  0  0  0
   -2.7964    2.6608   -2.4840 H   0  0  0  0  0  0  0  0  0  0  0  0
   -2.0768    3.1499   -4.0479 H   0  0  0  0  0  0  0  0  0  0  0  0
  1  2  1  0  0  0  0
  2 14  1  0  0  0  0
  2 31  2  0  0  0  0
  3  1  1  0  0  0  0
  3  5  1  0  0  0  0
  4  3  2  0  0  0  0
  6  7  2  0  0  0  0
  6  4  1  0  0  0  0
  7  9  1  0  0  0  0
  8  6  1  0  0  0  0
  9 11  1  0  0  0  0
  9  1  2  0  0  0  0
 10 35  2  0  0  0  0
 10  7  1  0  0  0  0
 12  4  1  0  0  0  0
 12 39  1  0  0  0  0
 13 10  1  0  0  0  0
 15 16  1  0  0  0  0
 16 38  1  0  0  0  0
 16 30  2  0  0  0  0
 17 19  1  0  0  0  0
 17 15  1  0  0  0  0
 18 17  2  0  0  0  0
 20 21  2  0  0  0  0
 20 18  1  0  0  0  0
 21 23  1  0  0  0  0
 22 20  1  0  0  0  0
 23 25  1  0  0  0  0
 23 15  2  0  0  0  0
 24 37  2  0  0  0  0
 24 21  1  0  0  0  0
 26 27  1  0  0  0  0
 26 18  1  0  0  0  0
 28 43  1  0  0  0  0
 28 44  1  0  0  0  0
 29 28  1  0  0  0  0
 29 41  1  0  0  0  0
 29 42  1  0  0  0  0
 30 28  1  0  0  0  0
 31 29  1  0  0  0  0
 32 12  2  0  0  0  0
 33 34  1  0  0  0  0
 33 35  1  0  0  0  0
 33 45  1  0  0  0  0
 33 46  1  0  0  0  0
 34 36  1  0  0  0  0
 34 47  1  0  0  0  0
 34 48  1  0  0  0  0
 36 26  2  0  0  0  0
 40 24  1  0  0  0  0
M  END
