
 OpenBabel02282012053D

 57 60  0  0  0  0  0  0  0  0999 V2000
   -3.3937   -1.7520   -0.9014 C   0  0  0  0  0  0  0  0  0  0  0  0
   -3.6828   -1.3078    0.4771 C   0  0  0  0  0  0  0  0  0  0  0  0
   -2.5031   -2.8010   -1.1748 C   0  0  0  0  0  0  0  0  0  0  0  0
   -2.1848   -3.1358   -2.4999 C   0  0  0  0  0  0  0  0  0  0  0  0
   -2.0468   -3.3481   -0.3582 H   0  0  0  0  0  0  0  0  0  0  0  0
   -2.7477   -2.3954   -3.5564 C   0  0  0  0  0  0  0  0  0  0  0  0
   -3.6391   -1.3441   -3.2946 C   0  0  0  0  0  0  0  0  0  0  0  0
   -2.4802   -2.6245   -4.5811 H   0  0  0  0  0  0  0  0  0  0  0  0
   -3.9703   -1.0428   -1.9634 C   0  0  0  0  0  0  0  0  0  0  0  0
   -4.1455   -0.5044   -4.4059 C   0  0  0  0  0  0  0  0  0  0  0  0
   -4.6340   -0.2141   -1.7461 H   0  0  0  0  0  0  0  0  0  0  0  0
   -1.2375   -4.2403   -2.7587 C   0  0  0  0  0  0  0  0  0  0  0  0
   -3.7151   -0.6289   -5.3969 H   0  0  0  0  0  0  0  0  0  0  0  0
   -4.4097   -0.5089    0.6138 H   0  0  0  0  0  0  0  0  0  0  0  0
   -0.9708    1.7661   -0.0951 C   0  0  0  0  0  0  0  0  0  0  0  0
   -0.8682    1.0692    1.2095 C   0  0  0  0  0  0  0  0  0  0  0  0
   -2.2257    2.0141   -0.6734 C   0  0  0  0  0  0  0  0  0  0  0  0
   -2.3300    2.5587   -1.9596 C   0  0  0  0  0  0  0  0  0  0  0  0
   -3.1288    1.7301   -0.1461 H   0  0  0  0  0  0  0  0  0  0  0  0
   -1.1640    2.8940   -2.6636 C   0  0  0  0  0  0  0  0  0  0  0  0
    0.1020    2.6849   -2.0881 C   0  0  0  0  0  0  0  0  0  0  0  0
   -1.2411    3.3087   -3.6615 H   0  0  0  0  0  0  0  0  0  0  0  0
    0.1885    2.1071   -0.8066 C   0  0  0  0  0  0  0  0  0  0  0  0
    1.3536    3.0499   -2.8611 C   0  0  0  0  0  0  0  0  0  0  0  0
    1.1591    1.9075   -0.3702 H   0  0  0  0  0  0  0  0  0  0  0  0
   -3.6740    2.6881   -2.5582 C   0  0  0  0  0  0  0  0  0  0  0  0
   -4.5332    2.4398   -1.9375 H   0  0  0  0  0  0  0  0  0  0  0  0
   -1.9643   -0.1070    3.0176 C   0  0  0  0  0  0  0  0  0  0  0  0
   -3.1095   -1.1038    2.7913 C   0  0  0  0  0  0  0  0  0  0  0  0
   -1.9328    0.7922    1.8816 N   0  0  0  0  0  0  0  0  0  0  0  0
   -1.0007   -0.6572    3.1112 H   0  0  0  0  0  0  0  0  0  0  0  0
   -2.9636   -1.6991    1.4753 N   0  0  0  0  0  0  0  0  0  0  0  0
   -4.0660   -0.5357    2.8588 H   0  0  0  0  0  0  0  0  0  0  0  0
   -0.9256   -4.5509   -3.8976 O   0  0  0  0  0  0  0  0  0  0  0  0
   -5.3167    1.4828   -5.1296 C   0  0  0  0  0  0  0  0  0  0  0  0
   -5.1521    2.8406   -4.4323 C   0  0  0  0  0  0  0  0  0  0  0  0
   -4.9796    0.4499   -4.1707 N   0  0  0  0  0  0  0  0  0  0  0  0
   -4.6435    1.4335   -6.0152 H   0  0  0  0  0  0  0  0  0  0  0  0
   -3.8367    2.9060   -3.8204 N   0  0  0  0  0  0  0  0  0  0  0  0
   -5.9466    2.9186   -3.6548 H   0  0  0  0  0  0  0  0  0  0  0  0
    3.4798    2.2411   -2.4424 C   0  0  0  0  0  0  0  0  0  0  0  0
    3.4974    3.7424   -2.5370 C   0  0  0  0  0  0  0  0  0  0  0  0
    2.2132    1.8640   -3.0527 N   0  0  0  0  0  0  0  0  0  0  0  0
    3.4423    1.9512   -1.3689 H   0  0  0  0  0  0  0  0  0  0  0  0
    2.1360    4.1062   -2.1905 N   0  0  0  0  0  0  0  0  0  0  0  0
    3.6903    4.0461   -3.5919 H   0  0  0  0  0  0  0  0  0  0  0  0
    0.1017    0.6997    1.5348 H   0  0  0  0  0  0  0  0  0  0  0  0
    1.0649    3.4477   -3.8635 H   0  0  0  0  0  0  0  0  0  0  0  0
    2.0539    4.0179   -1.1499 H   0  0  0  0  0  0  0  0  0  0  0  0
   -0.8061   -4.7901   -1.9277 H   0  0  0  0  0  0  0  0  0  0  0  0
   -2.1473    0.4597    3.9548 H   0  0  0  0  0  0  0  0  0  0  0  0
   -3.1307   -1.8896    3.5751 H   0  0  0  0  0  0  0  0  0  0  0  0
   -6.3670    1.3668   -5.4705 H   0  0  0  0  0  0  0  0  0  0  0  0
   -5.2943    3.6835   -5.1404 H   0  0  0  0  0  0  0  0  0  0  0  0
    4.3607    1.7545   -2.9146 H   0  0  0  0  0  0  0  0  0  0  0  0
    4.2575    4.2155   -1.8784 H   0  0  0  0  0  0  0  0  0  0  0  0
    2.3780    1.7435   -4.0809 H   0  0  0  0  0  0  0  0  0  0  0  0
  1  2  1  0  0  0  0
  2 14  1  0  0  0  0
  2 32  2  0  0  0  0
  3  1  1  0  0  0  0
  3  5  1  0  0  0  0
  4  3  2  0  0  0  0
  6  7  2  0  0  0  0
  6  4  1  0  0  0  0
  7  9  1  0  0  0  0
  8  6  1  0  0  0  0
  9 11  1  0  0  0  0
  9  1  2  0  0  0  0
 10 37  2  0  0  0  0
 10  7  1  0  0  0  0
 12  4  1  0  0  0  0
 12 50  1  0  0  0  0
 13 10  1  0  0  0  0
 15 16  1  0  0  0  0
 16 47  1  0  0  0  0
 16 30  2  0  0  0  0
 17 19  1  0  0  0  0
 17 15  1  0  0  0  0
 18 17  2  0  0  0  0
 20 21  2  0  0  0  0
 20 18  1  0  0  0  0
 21 23  1  0  0  0  0
 22 20  1  0  0  0  0
 23 25  1  0  0  0  0
 23 15  2  0  0  0  0
 24 45  1  0  0  0  0
 24 21  1  0  0  0  0
 26 18  1  0  0  0  0
 26 27  1  0  0  0  0
 28 31  1  0  0  0  0
 28 51  1  0  0  0  0
 29 33  1  0  0  0  0
 29 28  1  0  0  0  0
 29 52  1  0  0  0  0
 30 28  1  0  0  0  0
 32 29  1  0  0  0  0
 34 12  2  0  0  0  0
 35 36  1  0  0  0  0
 35 37  1  0  0  0  0
 36 39  1  0  0  0  0
 36 40  1  0  0  0  0
 38 35  1  0  0  0  0
 39 26  2  0  0  0  0
 41 44  1  0  0  0  0
 42 41  1  0  0  0  0
 42 45  1  0  0  0  0
 42 56  1  0  0  0  0
 43 24  1  0  0  0  0
 43 41  1  0  0  0  0
 45 49  1  0  0  0  0
 46 42  1  0  0  0  0
 48 24  1  0  0  0  0
 53 35  1  0  0  0  0
 54 36  1  0  0  0  0
 55 41  1  0  0  0  0
 57 43  1  0  0  0  0
M  END
