
 OpenBabel02082013313D

 66 68  0  0  0  0  0  0  0  0999 V2000
   -3.8279   -1.6378   -0.8181 C   0  0  0  0  0  0  0  0  0  0  0  0
   -4.0925   -1.1928    0.5645 C   0  0  0  0  0  0  0  0  0  0  0  0
   -3.0410   -2.7658   -1.0932 C   0  0  0  0  0  0  0  0  0  0  0  0
   -2.7435   -3.1167   -2.4193 C   0  0  0  0  0  0  0  0  0  0  0  0
   -2.6535   -3.3663   -0.2785 H   0  0  0  0  0  0  0  0  0  0  0  0
   -3.2165   -2.3108   -3.4739 C   0  0  0  0  0  0  0  0  0  0  0  0
   -4.0090   -1.1843   -3.2056 C   0  0  0  0  0  0  0  0  0  0  0  0
   -2.9660   -2.5544   -4.4997 H   0  0  0  0  0  0  0  0  0  0  0  0
   -4.3270   -0.8676   -1.8758 C   0  0  0  0  0  0  0  0  0  0  0  0
   -4.4304   -0.2908   -4.3100 C   0  0  0  0  0  0  0  0  0  0  0  0
   -4.9154    0.0147   -1.6560 H   0  0  0  0  0  0  0  0  0  0  0  0
   -1.9232   -4.3204   -2.6782 C   0  0  0  0  0  0  0  0  0  0  0  0
   -3.9815   -0.4194   -5.2921 H   0  0  0  0  0  0  0  0  0  0  0  0
   -4.7619   -0.3479    0.7118 H   0  0  0  0  0  0  0  0  0  0  0  0
   -1.6016   -4.9275   -1.8349 H   0  0  0  0  0  0  0  0  0  0  0  0
   -1.1945    1.6260    0.0891 C   0  0  0  0  0  0  0  0  0  0  0  0
   -1.1238    0.8909    1.3745 C   0  0  0  0  0  0  0  0  0  0  0  0
   -2.4392    1.9499   -0.4726 C   0  0  0  0  0  0  0  0  0  0  0  0
   -2.5214    2.5189   -1.7489 C   0  0  0  0  0  0  0  0  0  0  0  0
   -3.3520    1.7075    0.0578 H   0  0  0  0  0  0  0  0  0  0  0  0
   -1.3463    2.7982   -2.4605 C   0  0  0  0  0  0  0  0  0  0  0  0
   -0.0922    2.5210   -1.8961 C   0  0  0  0  0  0  0  0  0  0  0  0
   -1.4050    3.2338   -3.4511 H   0  0  0  0  0  0  0  0  0  0  0  0
   -0.0202    1.9242   -0.6213 C   0  0  0  0  0  0  0  0  0  0  0  0
    1.1265    2.8431   -2.6696 C   0  0  0  0  0  0  0  0  0  0  0  0
    0.9427    1.6714   -0.1933 H   0  0  0  0  0  0  0  0  0  0  0  0
   -3.8557    2.7483   -2.3350 C   0  0  0  0  0  0  0  0  0  0  0  0
    1.0192    3.1980   -3.6922 H   0  0  0  0  0  0  0  0  0  0  0  0
   -4.7283    2.5569   -1.7141 H   0  0  0  0  0  0  0  0  0  0  0  0
   -2.2577   -0.2760    3.1710 C   0  0  0  0  0  0  0  0  0  0  0  0
   -3.5684   -1.1152    2.9079 C   0  0  0  0  0  0  0  0  0  0  0  0
   -2.1973    0.6640    2.0574 N   0  0  0  0  0  0  0  0  0  0  0  0
   -3.4256   -1.6685    1.5642 N   0  0  0  0  0  0  0  0  0  0  0  0
   -0.8297   -5.8575   -4.1821 C   0  0  0  0  0  0  0  0  0  0  0  0
    0.5561   -5.3448   -4.7250 C   0  0  0  0  0  0  0  0  0  0  0  0
   -1.6024   -4.6591   -3.8810 N   0  0  0  0  0  0  0  0  0  0  0  0
    1.1552   -4.5831   -3.6189 N   0  0  0  0  0  0  0  0  0  0  0  0
   -5.4798    1.7650   -5.0442 C   0  0  0  0  0  0  0  0  0  0  0  0
   -5.3263    3.0890   -4.2019 C   0  0  0  0  0  0  0  0  0  0  0  0
   -5.2332    0.6957   -4.0836 N   0  0  0  0  0  0  0  0  0  0  0  0
   -4.0032    3.0164   -3.5903 N   0  0  0  0  0  0  0  0  0  0  0  0
    4.4599    1.8260   -2.6990 C   0  0  0  0  0  0  0  0  0  0  0  0
    3.5174    3.0847   -2.8622 C   0  0  0  0  0  0  0  0  0  0  0  0
    3.8038    0.6905   -3.3655 N   0  0  0  0  0  0  0  0  0  0  0  0
    2.2967    2.7677   -2.1312 N   0  0  0  0  0  0  0  0  0  0  0  0
   -0.1762    0.4530    1.6793 H   0  0  0  0  0  0  0  0  0  0  0  0
    1.9235   -3.9564   -3.9496 H   0  0  0  0  0  0  0  0  0  0  0  0
    1.4975   -5.2260   -2.8675 H   0  0  0  0  0  0  0  0  0  0  0  0
    3.6624    0.8944   -4.3816 H   0  0  0  0  0  0  0  0  0  0  0  0
    2.8849    0.4628   -2.9227 H   0  0  0  0  0  0  0  0  0  0  0  0
   -6.0836    3.1414   -3.4478 H   0  0  0  0  0  0  0  0  0  0  0  0
   -5.4316    3.9607   -4.8134 H   0  0  0  0  0  0  0  0  0  0  0  0
   -4.7621    1.7350   -5.8372 H   0  0  0  0  0  0  0  0  0  0  0  0
   -6.4409    1.6845   -5.5075 H   0  0  0  0  0  0  0  0  0  0  0  0
    0.4134   -4.7151   -5.5782 H   0  0  0  0  0  0  0  0  0  0  0  0
    1.1841   -6.1536   -5.0354 H   0  0  0  0  0  0  0  0  0  0  0  0
   -1.3271   -6.4454   -4.9250 H   0  0  0  0  0  0  0  0  0  0  0  0
   -0.7107   -6.4782   -3.3187 H   0  0  0  0  0  0  0  0  0  0  0  0
   -4.4312   -0.4846    2.9611 H   0  0  0  0  0  0  0  0  0  0  0  0
   -3.6950   -1.8861    3.6391 H   0  0  0  0  0  0  0  0  0  0  0  0
   -1.3966   -0.9112    3.1771 H   0  0  0  0  0  0  0  0  0  0  0  0
   -2.2739    0.2177    4.1202 H   0  0  0  0  0  0  0  0  0  0  0  0
    4.6012    1.6080   -1.6610 H   0  0  0  0  0  0  0  0  0  0  0  0
    5.4186    2.0151   -3.1349 H   0  0  0  0  0  0  0  0  0  0  0  0
    3.2988    3.2543   -3.8958 H   0  0  0  0  0  0  0  0  0  0  0  0
    3.9804    3.9733   -2.4868 H   0  0  0  0  0  0  0  0  0  0  0  0
  1  2  1  0  0  0  0
  2 14  1  0  0  0  0
  2 33  2  0  0  0  0
  3  1  1  0  0  0  0
  3  5  1  0  0  0  0
  4  3  2  0  0  0  0
  6  7  2  0  0  0  0
  6  4  1  0  0  0  0
  7  9  1  0  0  0  0
  8  6  1  0  0  0  0
  9 11  1  0  0  0  0
  9  1  2  0  0  0  0
 10 40  2  0  0  0  0
 10  7  1  0  0  0  0
 12  4  1  0  0  0  0
 12 15  1  0  0  0  0
 13 10  1  0  0  0  0
 16 17  1  0  0  0  0
 17 46  1  0  0  0  0
 17 32  2  0  0  0  0
 18 20  1  0  0  0  0
 18 16  1  0  0  0  0
 19 18  2  0  0  0  0
 21 22  2  0  0  0  0
 21 19  1  0  0  0  0
 22 24  1  0  0  0  0
 23 21  1  0  0  0  0
 24 26  1  0  0  0  0
 24 16  2  0  0  0  0
 25 45  2  0  0  0  0
 25 22  1  0  0  0  0
 27 19  1  0  0  0  0
 27 29  1  0  0  0  0
 28 25  1  0  0  0  0
 30 61  1  0  0  0  0
 30 62  1  0  0  0  0
 31 59  1  0  0  0  0
 31 30  1  0  0  0  0
 31 60  1  0  0  0  0
 32 30  1  0  0  0  0
 33 31  1  0  0  0  0
 34 36  1  0  0  0  0
 34 58  1  0  0  0  0
 35 34  1  0  0  0  0
 35 37  1  0  0  0  0
 36 12  2  0  0  0  0
 37 48  1  0  0  0  0
 38 39  1  0  0  0  0
 38 40  1  0  0  0  0
 39 41  1  0  0  0  0
 39 51  1  0  0  0  0
 41 27  2  0  0  0  0
 42 63  1  0  0  0  0
 43 42  1  0  0  0  0
 43 66  1  0  0  0  0
 43 45  1  0  0  0  0
 44 50  1  0  0  0  0
 44 42  1  0  0  0  0
 47 37  1  0  0  0  0
 49 44  1  0  0  0  0
 52 39  1  0  0  0  0
 53 38  1  0  0  0  0
 54 38  1  0  0  0  0
 55 35  1  0  0  0  0
 56 35  1  0  0  0  0
 57 34  1  0  0  0  0
 64 42  1  0  0  0  0
 65 43  1  0  0  0  0
M  END
