
 OpenBabel02282015373D

117121  0  0  0  0  0  0  0  0999 V2000
   -3.9423   -1.6634   -0.8515 C   0  0  0  0  0  0  0  0  0  0  0  0
   -4.2614   -1.2548    0.5277 C   0  0  0  0  0  0  0  0  0  0  0  0
   -3.1780   -2.8077   -1.1081 C   0  0  0  0  0  0  0  0  0  0  0  0
   -2.7946   -3.1291   -2.4148 C   0  0  0  0  0  0  0  0  0  0  0  0
   -2.8642   -3.4435   -0.2881 H   0  0  0  0  0  0  0  0  0  0  0  0
   -3.1648   -2.2776   -3.4774 C   0  0  0  0  0  0  0  0  0  0  0  0
   -3.9385   -1.1306   -3.2281 C   0  0  0  0  0  0  0  0  0  0  0  0
   -2.8463   -2.4998   -4.4890 H   0  0  0  0  0  0  0  0  0  0  0  0
   -4.3360   -0.8416   -1.9111 C   0  0  0  0  0  0  0  0  0  0  0  0
   -4.2654   -0.1845   -4.3234 C   0  0  0  0  0  0  0  0  0  0  0  0
   -4.9045    0.0550   -1.6988 H   0  0  0  0  0  0  0  0  0  0  0  0
   -1.9897   -4.3494   -2.6317 C   0  0  0  0  0  0  0  0  0  0  0  0
   -3.7883   -0.3170   -5.2881 H   0  0  0  0  0  0  0  0  0  0  0  0
   -4.8535   -0.3554    0.6843 H   0  0  0  0  0  0  0  0  0  0  0  0
   -1.7467   -4.9768   -1.7762 H   0  0  0  0  0  0  0  0  0  0  0  0
    3.4086   -3.3152   -0.0415 C   0  0  0  0  0  0  0  0  0  0  0  0
    3.5785   -4.0691    1.2149 C   0  0  0  0  0  0  0  0  0  0  0  0
    3.9486   -2.0238   -0.1512 C   0  0  0  0  0  0  0  0  0  0  0  0
    3.7975   -1.2837   -1.3187 C   0  0  0  0  0  0  0  0  0  0  0  0
    4.4871   -1.5824    0.6798 H   0  0  0  0  0  0  0  0  0  0  0  0
    3.0953   -1.8340   -2.4002 C   0  0  0  0  0  0  0  0  0  0  0  0
    2.5427   -3.1193   -2.3073 C   0  0  0  0  0  0  0  0  0  0  0  0
    2.9660   -1.2594   -3.3099 H   0  0  0  0  0  0  0  0  0  0  0  0
    2.6998   -3.8619   -1.1199 C   0  0  0  0  0  0  0  0  0  0  0  0
    1.8113   -3.6630   -3.4680 C   0  0  0  0  0  0  0  0  0  0  0  0
    2.2767   -4.8551   -1.0330 H   0  0  0  0  0  0  0  0  0  0  0  0
    4.3505    0.0790   -1.3674 C   0  0  0  0  0  0  0  0  0  0  0  0
    1.7279   -3.0402   -4.3503 H   0  0  0  0  0  0  0  0  0  0  0  0
    3.1055   -5.0379    1.3505 H   0  0  0  0  0  0  0  0  0  0  0  0
    4.7641    0.5114   -0.4581 H   0  0  0  0  0  0  0  0  0  0  0  0
   -1.1581    1.5439    0.2649 C   0  0  0  0  0  0  0  0  0  0  0  0
   -1.0993    0.7069    1.4944 C   0  0  0  0  0  0  0  0  0  0  0  0
   -2.4094    1.9223   -0.2590 C   0  0  0  0  0  0  0  0  0  0  0  0
   -2.4968    2.6092   -1.4724 C   0  0  0  0  0  0  0  0  0  0  0  0
   -3.3224    1.6321    0.2461 H   0  0  0  0  0  0  0  0  0  0  0  0
   -1.3295    2.9646   -2.1502 C   0  0  0  0  0  0  0  0  0  0  0  0
   -0.0718    2.6271   -1.6427 C   0  0  0  0  0  0  0  0  0  0  0  0
   -1.3977    3.4877   -3.0969 H   0  0  0  0  0  0  0  0  0  0  0  0
    0.0177    1.8959   -0.4357 C   0  0  0  0  0  0  0  0  0  0  0  0
    1.1060    3.0328   -2.4429 C   0  0  0  0  0  0  0  0  0  0  0  0
    0.9853    1.5969   -0.0503 H   0  0  0  0  0  0  0  0  0  0  0  0
   -3.8203    2.8666   -2.0701 C   0  0  0  0  0  0  0  0  0  0  0  0
    0.9303    3.6419   -3.3235 H   0  0  0  0  0  0  0  0  0  0  0  0
   -4.7114    2.5870   -1.5121 H   0  0  0  0  0  0  0  0  0  0  0  0
   -2.3924   -0.5731    3.1804 C   0  0  0  0  0  0  0  0  0  0  0  0
   -3.7358   -1.2817    2.8641 C   0  0  0  0  0  0  0  0  0  0  0  0
   -2.1965    0.4155    2.1179 N   0  0  0  0  0  0  0  0  0  0  0  0
   -3.6605   -1.8157    1.5203 N   0  0  0  0  0  0  0  0  0  0  0  0
    3.9511   -3.0715    4.5183 C   0  0  0  0  0  0  0  0  0  0  0  0
    4.4640   -4.0886    3.4694 C   0  0  0  0  0  0  0  0  0  0  0  0
    2.4901   -2.9472    4.4083 N   0  0  0  0  0  0  0  0  0  0  0  0
    4.2686   -3.5327    2.1566 N   0  0  0  0  0  0  0  0  0  0  0  0
   -0.8095   -5.8774   -4.0546 C   0  0  0  0  0  0  0  0  0  0  0  0
    0.6141   -5.5260   -4.5308 C   0  0  0  0  0  0  0  0  0  0  0  0
   -1.5767   -4.6726   -3.8062 N   0  0  0  0  0  0  0  0  0  0  0  0
    1.3136   -4.8532   -3.4364 N   0  0  0  0  0  0  0  0  0  0  0  0
   -5.2656    1.9946   -4.9356 C   0  0  0  0  0  0  0  0  0  0  0  0
   -5.1809    3.2368   -4.0105 C   0  0  0  0  0  0  0  0  0  0  0  0
   -5.0203    0.8358   -4.0777 N   0  0  0  0  0  0  0  0  0  0  0  0
   -3.9121    3.2079   -3.3114 N   0  0  0  0  0  0  0  0  0  0  0  0
    4.6669    2.1705   -2.4779 C   0  0  0  0  0  0  0  0  0  0  0  0
    3.4641    2.9877   -2.9837 C   0  0  0  0  0  0  0  0  0  0  0  0
    4.2845    0.7763   -2.4439 N   0  0  0  0  0  0  0  0  0  0  0  0
    2.3005    2.6370   -2.1663 N   0  0  0  0  0  0  0  0  0  0  0  0
    2.2175   -2.5979    3.4602 H   0  0  0  0  0  0  0  0  0  0  0  0
    2.1315   -2.2593    5.1104 H   0  0  0  0  0  0  0  0  0  0  0  0
   -0.1511    0.2728    1.7894 H   0  0  0  0  0  0  0  0  0  0  0  0
    4.6125   -1.6887    4.2995 C   0  0  0  0  0  0  0  0  0  0  0  0
    4.3073   -3.5797    5.9227 C   0  0  0  0  0  0  0  0  0  0  0  0
   -1.2601   -1.6289    3.2353 C   0  0  0  0  0  0  0  0  0  0  0  0
   -2.4989    0.1374    4.5366 C   0  0  0  0  0  0  0  0  0  0  0  0
   -4.5584   -0.5319    2.9365 H   0  0  0  0  0  0  0  0  0  0  0  0
   -3.9693   -2.0945    3.5852 H   0  0  0  0  0  0  0  0  0  0  0  0
    5.5463    2.3062   -3.1453 H   0  0  0  0  0  0  0  0  0  0  0  0
    4.9577    2.5234   -1.4619 H   0  0  0  0  0  0  0  0  0  0  0  0
    3.2219    2.6336   -4.4752 C   0  0  0  0  0  0  0  0  0  0  0  0
    3.7751    4.4896   -2.8500 C   0  0  0  0  0  0  0  0  0  0  0  0
   -1.3413   -6.4735   -4.8274 H   0  0  0  0  0  0  0  0  0  0  0  0
   -0.7421   -6.5097   -3.1386 H   0  0  0  0  0  0  0  0  0  0  0  0
   -6.0201    3.1889   -3.2783 H   0  0  0  0  0  0  0  0  0  0  0  0
   -5.2882    4.1904   -4.5708 H   0  0  0  0  0  0  0  0  0  0  0  0
   -6.6764    1.8966   -5.5315 C   0  0  0  0  0  0  0  0  0  0  0  0
   -4.2317    2.1306   -6.0816 C   0  0  0  0  0  0  0  0  0  0  0  0
    0.5370   -4.6905   -5.8354 C   0  0  0  0  0  0  0  0  0  0  0  0
    1.3795   -6.8244   -4.8291 C   0  0  0  0  0  0  0  0  0  0  0  0
   -1.1476   -2.1378    2.2532 H   0  0  0  0  0  0  0  0  0  0  0  0
   -1.4900   -2.4028    3.9991 H   0  0  0  0  0  0  0  0  0  0  0  0
   -0.2889   -1.1683    3.5099 H   0  0  0  0  0  0  0  0  0  0  0  0
   -3.3219    0.8840    4.5248 H   0  0  0  0  0  0  0  0  0  0  0  0
   -1.5502    0.6666    4.7677 H   0  0  0  0  0  0  0  0  0  0  0  0
   -2.7018   -0.5968    5.3467 H   0  0  0  0  0  0  0  0  0  0  0  0
   -4.2981    1.2771   -6.7887 H   0  0  0  0  0  0  0  0  0  0  0  0
   -3.1972    2.1808   -5.6782 H   0  0  0  0  0  0  0  0  0  0  0  0
   -4.4199    3.0581   -6.6642 H   0  0  0  0  0  0  0  0  0  0  0  0
   -6.7580    0.9962   -6.1772 H   0  0  0  0  0  0  0  0  0  0  0  0
   -6.9065    2.7955   -6.1434 H   0  0  0  0  0  0  0  0  0  0  0  0
   -7.4359    1.8147   -4.7245 H   0  0  0  0  0  0  0  0  0  0  0  0
    0.8821   -7.4022   -5.6374 H   0  0  0  0  0  0  0  0  0  0  0  0
    1.4328   -7.4638   -3.9211 H   0  0  0  0  0  0  0  0  0  0  0  0
    2.4190   -6.5925   -5.1476 H   0  0  0  0  0  0  0  0  0  0  0  0
    0.0064   -5.2566   -6.6299 H   0  0  0  0  0  0  0  0  0  0  0  0
    1.5559   -4.4493   -6.2079 H   0  0  0  0  0  0  0  0  0  0  0  0
   -0.0162   -3.7401   -5.6732 H   0  0  0  0  0  0  0  0  0  0  0  0
    4.6725    4.7600   -3.4468 H   0  0  0  0  0  0  0  0  0  0  0  0
    3.9694    4.7466   -1.7860 H   0  0  0  0  0  0  0  0  0  0  0  0
    2.9202    5.1042   -3.2022 H   0  0  0  0  0  0  0  0  0  0  0  0
    4.1323    2.8432   -5.0774 H   0  0  0  0  0  0  0  0  0  0  0  0
    2.4019    3.2354   -4.9171 H   0  0  0  0  0  0  0  0  0  0  0  0
    2.9626    1.5599   -4.5929 H   0  0  0  0  0  0  0  0  0  0  0  0
    3.8388   -4.5690    6.1086 H   0  0  0  0  0  0  0  0  0  0  0  0
    3.9462   -2.8664    6.6945 H   0  0  0  0  0  0  0  0  0  0  0  0
    5.4094   -3.6802    6.0303 H   0  0  0  0  0  0  0  0  0  0  0  0
    5.7192   -1.7691    4.3541 H   0  0  0  0  0  0  0  0  0  0  0  0
    4.2687   -0.9634    5.0665 H   0  0  0  0  0  0  0  0  0  0  0  0
    4.3439   -1.2696    3.3053 H   0  0  0  0  0  0  0  0  0  0  0  0
    3.9482   -5.0687    3.5850 H   0  0  0  0  0  0  0  0  0  0  0  0
    5.5551   -4.2533    3.6061 H   0  0  0  0  0  0  0  0  0  0  0  0
  1  2  1  0  0  0  0
  2 14  1  0  0  0  0
  2 48  2  0  0  0  0
  3  1  1  0  0  0  0
  3  5  1  0  0  0  0
  4  3  2  0  0  0  0
  6  7  2  0  0  0  0
  6  4  1  0  0  0  0
  7  9  1  0  0  0  0
  8  6  1  0  0  0  0
  9 11  1  0  0  0  0
  9  1  2  0  0  0  0
 10 59  2  0  0  0  0
 10  7  1  0  0  0  0
 12  4  1  0  0  0  0
 12 15  1  0  0  0  0
 13 10  1  0  0  0  0
 16 17  1  0  0  0  0
 17 29  1  0  0  0  0
 17 52  2  0  0  0  0
 18 16  1  0  0  0  0
 18 20  1  0  0  0  0
 19 18  2  0  0  0  0
 21 22  2  0  0  0  0
 21 19  1  0  0  0  0
 22 24  1  0  0  0  0
 23 21  1  0  0  0  0
 24 26  1  0  0  0  0
 24 16  2  0  0  0  0
 25 56  2  0  0  0  0
 25 22  1  0  0  0  0
 27 19  1  0  0  0  0
 27 30  1  0  0  0  0
 28 25  1  0  0  0  0
 31 32  1  0  0  0  0
 32 67  1  0  0  0  0
 32 47  2  0  0  0  0
 33 35  1  0  0  0  0
 33 31  1  0  0  0  0
 34 33  2  0  0  0  0
 36 37  2  0  0  0  0
 36 34  1  0  0  0  0
 37 39  1  0  0  0  0
 38 36  1  0  0  0  0
 39 41  1  0  0  0  0
 39 31  2  0  0  0  0
 40 64  2  0  0  0  0
 40 37  1  0  0  0  0
 42 44  1  0  0  0  0
 42 34  1  0  0  0  0
 43 40  1  0  0  0  0
 45 70  1  0  0  0  0
 45 71  1  0  0  0  0
 46 72  1  0  0  0  0
 46 45  1  0  0  0  0
 46 73  1  0  0  0  0
 47 45  1  0  0  0  0
 48 46  1  0  0  0  0
 49 69  1  0  0  0  0
 50116  1  0  0  0  0
 50117  1  0  0  0  0
 50 49  1  0  0  0  0
 51 49  1  0  0  0  0
 51 66  1  0  0  0  0
 52 50  1  0  0  0  0
 53 55  1  0  0  0  0
 53 79  1  0  0  0  0
 54 53  1  0  0  0  0
 54 56  1  0  0  0  0
 55 12  2  0  0  0  0
 57 59  1  0  0  0  0
 57 58  1  0  0  0  0
 58 60  1  0  0  0  0
 58 80  1  0  0  0  0
 60 42  2  0  0  0  0
 61 63  1  0  0  0  0
 61 75  1  0  0  0  0
 62 77  1  0  0  0  0
 62 61  1  0  0  0  0
 62 64  1  0  0  0  0
 63 27  2  0  0  0  0
 65 51  1  0  0  0  0
 68113  1  0  0  0  0
 68 49  1  0  0  0  0
 68114  1  0  0  0  0
 69112  1  0  0  0  0
 69110  1  0  0  0  0
 69111  1  0  0  0  0
 70 88  1  0  0  0  0
 70 87  1  0  0  0  0
 71 90  1  0  0  0  0
 71 91  1  0  0  0  0
 74 61  1  0  0  0  0
 76 62  1  0  0  0  0
 77105  1  0  0  0  0
 78 53  1  0  0  0  0
 81 58  1  0  0  0  0
 82 57  1  0  0  0  0
 82 97  1  0  0  0  0
 83 93  1  0  0  0  0
 83 57  1  0  0  0  0
 84103  1  0  0  0  0
 84 54  1  0  0  0  0
 85 54  1  0  0  0  0
 85 99  1  0  0  0  0
 86 70  1  0  0  0  0
 89 71  1  0  0  0  0
 92 83  1  0  0  0  0
 94 83  1  0  0  0  0
 95 82  1  0  0  0  0
 96 82  1  0  0  0  0
 98 85  1  0  0  0  0
100 85  1  0  0  0  0
101 84  1  0  0  0  0
102 84  1  0  0  0  0
104 77  1  0  0  0  0
106 77  1  0  0  0  0
107 76  1  0  0  0  0
108 76  1  0  0  0  0
109 76  1  0  0  0  0
115 68  1  0  0  0  0
M  END
