
     RDKit          3D

  0  0  0  0  0  0  0  0  0  0999 V3000
M  V30 BEGIN CTAB
M  V30 COUNTS 159 168 0 0 0
M  V30 BEGIN ATOM
M  V30 1 C -3.2080 -1.4901 -0.6122 0
M  V30 2 C -3.5659 -1.2814 0.7848 0
M  V30 3 C -2.5621 -2.6642 -1.0004 0
M  V30 4 C -2.1844 -2.8644 -2.3226 0
M  V30 5 H -2.3644 -3.4104 -0.2460 0
M  V30 6 C -2.4483 -1.8705 -3.2650 0
M  V30 7 C -3.0984 -0.6989 -2.8951 0
M  V30 8 H -2.1420 -2.0396 -4.2860 0
M  V30 9 C -3.4770 -0.5147 -1.5651 0
M  V30 10 C -3.3621 0.3323 -3.8887 0
M  V30 11 H -3.9776 0.4033 -1.2977 0
M  V30 12 C -1.5118 -4.0967 -2.7054 0
M  V30 13 H -2.8264 0.2194 -4.8444 0
M  V30 14 H -3.9602 -0.2847 1.0374 0
M  V30 15 H -1.2525 -4.7718 -1.8751 0
M  V30 16 C 3.1292 -2.3972 -0.3215 0
M  V30 17 C 2.9802 -2.8361 1.0600 0
M  V30 18 C 3.8603 -1.2455 -0.6141 0
M  V30 19 C 3.9850 -0.7955 -1.9229 0
M  V30 20 H 4.3250 -0.7153 0.2033 0
M  V30 21 C 3.3603 -1.5034 -2.9496 0
M  V30 22 C 2.6355 -2.6573 -2.6749 0
M  V30 23 H 3.4620 -1.1363 -3.9594 0
M  V30 24 C 2.5240 -3.1000 -1.3566 0
M  V30 25 C 1.9849 -3.3835 -3.7563 0
M  V30 26 H 1.9542 -3.9961 -1.1639 0
M  V30 27 C 4.7530 0.4078 -2.2054 0
M  V30 28 H 1.9180 -2.8473 -4.7159 0
M  V30 29 H 2.2879 -3.6762 1.2264 0
M  V30 30 H 5.1168 0.9552 -1.3221 0
M  V30 31 C 0.7189 3.5764 -0.2189 0
M  V30 32 C 1.0166 3.6525 1.2055 0
M  V30 33 C -0.6030 3.6382 -0.6608 0
M  V30 34 C -0.9067 3.5350 -2.0128 0
M  V30 35 H -1.3809 3.7681 0.0762 0
M  V30 36 C 0.1270 3.3566 -2.9321 0
M  V30 37 C 1.4496 3.3007 -2.5080 0
M  V30 38 H -0.1272 3.2716 -3.9775 0
M  V30 39 C 1.7396 3.4125 -1.1480 0
M  V30 40 C 2.5179 3.1085 -3.4785 0
M  V30 41 H 2.7726 3.3636 -0.8390 0
M  V30 42 C -2.2927 3.6033 -2.4510 0
M  V30 43 H 2.1957 2.7958 -4.4842 0
M  V30 44 H 2.0665 3.4782 1.4884 0
M  V30 45 H -3.0424 3.6354 -1.6452 0
M  V30 46 C -2.4078 -2.1995 3.8239 0
M  V30 47 C -3.7014 -1.9494 3.0254 0
M  V30 48 N -1.4140 -1.2090 3.4331 0
M  V30 49 N -3.4101 -2.1885 1.6469 0
M  V30 50 C -4.7933 -2.9217 3.4816 0
M  V30 51 C 2.9016 -1.4296 4.1369 0
M  V30 52 C 3.3920 -2.6655 3.3590 0
M  V30 53 N 1.5996 -1.0331 3.6176 0
M  V30 54 C 2.7687 -1.7614 5.6224 0
M  V30 55 N 3.5969 -2.2678 2.0017 0
M  V30 56 C -0.4739 2.8089 4.1140 0
M  V30 57 C 0.4046 3.8890 3.4539 0
M  V30 58 N -0.0693 1.5018 3.6145 0
M  V30 59 C -0.2962 2.8405 5.6313 0
M  V30 60 N 0.1139 3.8846 2.0548 0
M  V30 61 C -0.5481 -5.5872 -4.2090 0
M  V30 62 C 0.8697 -5.2060 -4.6869 0
M  V30 63 N -1.2493 -4.3788 -3.9060 0
M  V30 64 N 1.5327 -4.5501 -3.6042 0
M  V30 65 C -4.3499 2.2951 -4.6648 0
M  V30 66 C -3.9991 3.6583 -4.0306 0
M  V30 67 N -4.1538 1.2882 -3.6700 0
M  V30 68 N -2.6162 3.6325 -3.6693 0
M  V30 69 C 5.7213 2.0084 -3.5883 0
M  V30 70 C 4.7442 3.0550 -4.1659 0
M  V30 71 N 4.9943 0.7952 -3.3808 0
M  V30 72 N 3.7304 3.2919 -3.1871 0
M  V30 73 C 5.4989 4.3559 -4.4497 0
M  V30 74 H -0.0711 1.5156 2.5988 0
M  V30 75 H -0.7403 0.7867 3.8920 0
M  V30 76 H -0.4983 -1.4473 3.8120 0
M  V30 77 H -1.3155 -1.2137 2.4221 0
M  V30 78 H 1.6611 -0.9208 2.6099 0
M  V30 79 H 1.3226 -0.1265 3.9907 0
M  V30 80 C -1.2790 -6.3454 -5.3171 0
M  V30 81 C -4.2486 4.7768 -5.0424 0
M  V30 82 H -1.5230 3.0498 3.8667 0
M  V30 83 C -0.6312 4.2158 6.1964 0
M  V30 84 H 0.7392 2.5831 5.8621 0
M  V30 85 H -0.9367 2.0777 6.0784 0
M  V30 86 C 0.2422 5.2824 5.5438 0
M  V30 87 H -0.4801 4.2192 7.2778 0
M  V30 88 H -1.6825 4.4414 6.0034 0
M  V30 89 C 0.0625 5.2658 4.0306 0
M  V30 90 H 1.2899 5.0911 5.7870 0
M  V30 91 H -0.0179 6.2693 5.9320 0
M  V30 92 H 0.7026 6.0167 3.5623 0
M  V30 93 H -0.9720 5.4990 3.7723 0
M  V30 94 H 1.4648 3.6503 3.6556 0
M  V30 95 H -4.0281 -0.9086 3.2032 0
M  V30 96 C -5.0539 -2.7842 4.9768 0
M  V30 97 H -4.4685 -3.9372 3.2484 0
M  V30 98 H -5.7059 -2.7228 2.9155 0
M  V30 99 C -3.7736 -3.0348 5.7671 0
M  V30 100 H -5.8267 -3.4936 5.2799 0
M  V30 101 H -5.4199 -1.7772 5.1903 0
M  V30 102 C -2.6805 -2.0703 5.3218 0
M  V30 103 H -3.4412 -4.0620 5.6007 0
M  V30 104 H -3.9637 -2.9122 6.8352 0
M  V30 105 H -1.7552 -2.2637 5.8680 0
M  V30 106 H -2.9814 -1.0418 5.5297 0
M  V30 107 H -2.0851 -3.2322 3.6020 0
M  V30 108 H 3.6651 -0.6421 4.0082 0
M  V30 109 C 4.7201 -3.1565 3.9427 0
M  V30 110 H 2.6289 -3.4604 3.4446 0
M  V30 111 C 4.5753 -3.4818 5.4245 0
M  V30 112 H 5.4682 -2.3745 3.8007 0
M  V30 113 H 5.0477 -4.0390 3.3887 0
M  V30 114 C 4.0913 -2.2577 6.1951 0
M  V30 115 H 5.5356 -3.8185 5.8204 0
M  V30 116 H 3.8568 -4.2953 5.5489 0
M  V30 117 H 2.4326 -0.8700 6.1558 0
M  V30 118 H 2.0000 -2.5279 5.7370 0
M  V30 119 H 3.9683 -2.5056 7.2513 0
M  V30 120 H 4.8392 -1.4648 6.1210 0
M  V30 121 H 4.3218 2.6559 -5.1061 0
M  V30 122 C 6.6437 4.1132 -5.4263 0
M  V30 123 H 5.8828 4.7474 -3.5060 0
M  V30 124 H 4.7987 5.0884 -4.8571 0
M  V30 125 C 7.6029 3.0624 -4.8761 0
M  V30 126 H 7.1769 5.0490 -5.6053 0
M  V30 127 H 6.2388 3.7695 -6.3811 0
M  V30 128 C 6.8603 1.7649 -4.5785 0
M  V30 129 H 8.0614 3.4363 -3.9576 0
M  V30 130 H 8.4013 2.8720 -5.5961 0
M  V30 131 H 7.5423 1.0233 -4.1577 0
M  V30 132 H 6.4391 1.3506 -5.4960 0
M  V30 133 H 6.1218 2.4116 -2.6405 0
M  V30 134 H -4.6493 3.7937 -3.1472 0
M  V30 135 C -5.7024 4.7747 -5.5006 0
M  V30 136 H -3.5828 4.6285 -5.8942 0
M  V30 137 H -3.9956 5.7338 -4.5815 0
M  V30 138 C -6.0697 3.4244 -6.1080 0
M  V30 139 H -5.8578 5.5686 -6.2337 0
M  V30 140 H -6.3521 4.9756 -4.6455 0
M  V30 141 C -5.8144 2.3013 -5.1095 0
M  V30 142 H -5.4691 3.2553 -7.0049 0
M  V30 143 H -7.1211 3.4205 -6.4026 0
M  V30 144 H -6.0520 1.3330 -5.5555 0
M  V30 145 H -6.4446 2.4282 -4.2276 0
M  V30 146 H -3.6947 2.1393 -5.5411 0
M  V30 147 H -0.4388 -6.2304 -3.3170 0
M  V30 148 C -0.5077 -7.5996 -5.7114 0
M  V30 149 H -1.3886 -5.6822 -6.1767 0
M  V30 150 H -2.2792 -6.6076 -4.9661 0
M  V30 151 C 0.9039 -7.2392 -6.1637 0
M  V30 152 H -1.0358 -8.1188 -6.5137 0
M  V30 153 H -0.4518 -8.2750 -4.8545 0
M  V30 154 C 1.6375 -6.4738 -5.0685 0
M  V30 155 H 0.8494 -6.6214 -7.0631 0
M  V30 156 H 1.4598 -8.1455 -6.4123 0
M  V30 157 H 2.6381 -6.1928 -5.4042 0
M  V30 158 H 1.7445 -7.0960 -4.1783 0
M  V30 159 H 0.7747 -4.5475 -5.5694 0
M  V30 END ATOM
M  V30 BEGIN BOND
M  V30 1 1 1 2
M  V30 2 1 2 14
M  V30 3 2 2 49
M  V30 4 1 3 1
M  V30 5 1 3 5
M  V30 6 2 4 3
M  V30 7 2 6 7
M  V30 8 1 6 4
M  V30 9 1 7 9
M  V30 10 1 8 6
M  V30 11 1 9 11
M  V30 12 2 9 1
M  V30 13 2 10 67
M  V30 14 1 10 7
M  V30 15 1 12 4
M  V30 16 1 12 15
M  V30 17 1 13 10
M  V30 18 1 16 17
M  V30 19 1 17 29
M  V30 20 2 17 55
M  V30 21 1 18 16
M  V30 22 1 18 20
M  V30 23 2 19 18
M  V30 24 2 21 22
M  V30 25 1 21 19
M  V30 26 1 22 24
M  V30 27 1 23 21
M  V30 28 1 24 26
M  V30 29 2 24 16
M  V30 30 2 25 64
M  V30 31 1 25 22
M  V30 32 1 27 19
M  V30 33 1 27 30
M  V30 34 1 28 25
M  V30 35 1 31 32
M  V30 36 1 32 44
M  V30 37 2 32 60
M  V30 38 1 33 31
M  V30 39 1 33 35
M  V30 40 2 34 33
M  V30 41 2 36 37
M  V30 42 1 36 34
M  V30 43 1 37 39
M  V30 44 1 38 36
M  V30 45 1 39 41
M  V30 46 2 39 31
M  V30 47 2 40 72
M  V30 48 1 40 37
M  V30 49 1 42 34
M  V30 50 1 42 45
M  V30 51 1 43 40
M  V30 52 1 46 107
M  V30 53 1 46 102
M  V30 54 1 47 50
M  V30 55 1 47 95
M  V30 56 1 47 46
M  V30 57 1 48 46
M  V30 58 1 48 77
M  V30 59 1 49 47
M  V30 60 1 50 96
M  V30 61 1 51 108
M  V30 62 1 51 54
M  V30 63 1 52 110
M  V30 64 1 52 109
M  V30 65 1 52 51
M  V30 66 1 53 78
M  V30 67 1 53 51
M  V30 68 1 53 79
M  V30 69 1 54 118
M  V30 70 1 54 114
M  V30 71 1 54 117
M  V30 72 1 55 52
M  V30 73 1 56 82
M  V30 74 1 56 59
M  V30 75 1 57 94
M  V30 76 1 57 89
M  V30 77 1 57 56
M  V30 78 1 58 56
M  V30 79 1 58 75
M  V30 80 1 59 84
M  V30 81 1 59 83
M  V30 82 1 59 85
M  V30 83 1 60 57
M  V30 84 1 61 63
M  V30 85 1 61 147
M  V30 86 1 62 159
M  V30 87 1 62 61
M  V30 88 1 62 64
M  V30 89 2 63 12
M  V30 90 1 65 146
M  V30 91 1 65 66
M  V30 92 1 65 67
M  V30 93 1 66 68
M  V30 94 1 66 134
M  V30 95 2 68 42
M  V30 96 1 69 71
M  V30 97 1 69 133
M  V30 98 1 70 121
M  V30 99 1 70 69
M  V30 100 1 70 72
M  V30 101 2 71 27
M  V30 102 1 73 70
M  V30 103 1 73 123
M  V30 104 1 74 58
M  V30 105 1 76 48
M  V30 106 1 80 150
M  V30 107 1 80 61
M  V30 108 1 81 137
M  V30 109 1 81 66
M  V30 110 1 83 87
M  V30 111 1 86 91
M  V30 112 1 86 90
M  V30 113 1 86 83
M  V30 114 1 88 83
M  V30 115 1 89 86
M  V30 116 1 92 89
M  V30 117 1 93 89
M  V30 118 1 96 100
M  V30 119 1 96 101
M  V30 120 1 96 99
M  V30 121 1 97 50
M  V30 122 1 98 50
M  V30 123 1 99 104
M  V30 124 1 102 99
M  V30 125 1 102 106
M  V30 126 1 102 105
M  V30 127 1 103 99
M  V30 128 1 109 111
M  V30 129 1 111 116
M  V30 130 1 111 115
M  V30 131 1 111 114
M  V30 132 1 112 109
M  V30 133 1 113 109
M  V30 134 1 114 119
M  V30 135 1 120 114
M  V30 136 1 122 125
M  V30 137 1 122 73
M  V30 138 1 124 73
M  V30 139 1 125 128
M  V30 140 1 125 129
M  V30 141 1 126 122
M  V30 142 1 127 122
M  V30 143 1 128 131
M  V30 144 1 128 69
M  V30 145 1 130 125
M  V30 146 1 132 128
M  V30 147 1 135 81
M  V30 148 1 135 140
M  V30 149 1 136 81
M  V30 150 1 138 135
M  V30 151 1 138 141
M  V30 152 1 139 135
M  V30 153 1 141 65
M  V30 154 1 141 145
M  V30 155 1 142 138
M  V30 156 1 143 138
M  V30 157 1 144 141
M  V30 158 1 148 80
M  V30 159 1 148 153
M  V30 160 1 149 80
M  V30 161 1 151 148
M  V30 162 1 151 154
M  V30 163 1 152 148
M  V30 164 1 154 62
M  V30 165 1 154 158
M  V30 166 1 155 151
M  V30 167 1 156 151
M  V30 168 1 157 154
M  V30 END BOND
M  V30 END CTAB
M  END

$$$$
