
     RDKit          3D

  0  0  0  0  0  0  0  0  0  0999 V3000
M  V30 BEGIN CTAB
M  V30 COUNTS 87 92 0 0 0
M  V30 BEGIN ATOM
M  V30 1 C -3.9795 -1.5977 -0.6956 0
M  V30 2 C -4.8736 -0.6574 -0.0380 0
M  V30 3 C -3.6026 -2.7920 -0.0820 0
M  V30 4 C -2.6968 -3.6456 -0.7006 0
M  V30 5 H -4.0347 -3.0364 0.8763 0
M  V30 6 C -2.1184 -3.2713 -1.9126 0
M  V30 7 C -2.4575 -2.0671 -2.5179 0
M  V30 8 H -1.3877 -3.9288 -2.3567 0
M  V30 9 C -3.4172 -1.2526 -1.9195 0
M  V30 10 C -1.7412 -1.6126 -3.7003 0
M  V30 11 H -3.6828 -0.3299 -2.4113 0
M  V30 12 C -2.2796 -4.8872 -0.0590 0
M  V30 13 H -0.8206 -2.1692 -3.9341 0
M  V30 14 H -5.1762 0.2067 -0.6480 0
M  V30 15 H -2.3944 -4.9246 1.0354 0
M  V30 16 C 2.3153 -1.9652 -2.6253 0
M  V30 17 C 2.4366 -1.1445 -3.8828 0
M  V30 18 C 2.8000 -1.4618 -1.4294 0
M  V30 19 C 2.6901 -2.1962 -0.2489 0
M  V30 20 H 3.2453 -0.4809 -1.3994 0
M  V30 21 C 2.0998 -3.4536 -0.2803 0
M  V30 22 C 1.6435 -3.9874 -1.4824 0
M  V30 23 H 1.9940 -4.0453 0.6160 0
M  V30 24 C 1.7499 -3.2311 -2.6493 0
M  V30 25 C 1.0213 -5.3007 -1.5269 0
M  V30 26 H 1.3917 -3.6395 -3.5848 0
M  V30 27 C 3.1464 -1.6305 1.0128 0
M  V30 28 H 0.6589 -5.6203 -2.5169 0
M  V30 29 H 2.7320 -2.0958 1.9213 0
M  V30 30 C -1.6187 1.5007 0.8730 0
M  V30 31 C -2.6864 1.3074 1.8453 0
M  V30 32 C -1.9221 1.6302 -0.4812 0
M  V30 33 C -0.9129 1.6826 -1.4378 0
M  V30 34 H -2.9614 1.6562 -0.7687 0
M  V30 35 C 0.4190 1.6668 -1.0247 0
M  V30 36 C 0.7353 1.5934 0.3284 0
M  V30 37 H 1.2007 1.7052 -1.7670 0
M  V30 38 C -0.2868 1.4844 1.2711 0
M  V30 39 C 2.1313 1.6046 0.7384 0
M  V30 40 H -0.0162 1.3970 2.3124 0
M  V30 41 C -1.2881 1.7059 -2.8423 0
M  V30 42 H 2.8589 1.7060 -0.0787 0
M  V30 43 H -2.3539 1.8925 -3.0347 0
M  V30 44 C -4.9232 1.1966 2.4996 0
M  V30 45 C -5.9477 0.3019 1.7658 0
M  V30 46 N -3.8945 1.5420 1.5718 0
M  V30 47 H -4.5327 0.6705 3.3849 0
M  V30 48 N -5.2367 -0.7842 1.1645 0
M  V30 49 H -6.4733 0.9171 1.0200 0
M  V30 50 C 3.8850 -0.1011 -5.3106 0
M  V30 51 C 3.1640 1.0106 -4.5183 0
M  V30 52 N 3.7487 -1.2974 -4.4940 0
M  V30 53 H 4.9308 0.1198 -5.5154 0
M  V30 54 N 2.2886 0.2869 -3.6016 0
M  V30 55 H 2.6197 1.6940 -5.1756 0
M  V30 56 C -1.2735 -6.9950 -0.0687 0
M  V30 57 C 0.1445 -7.2433 -0.6243 0
M  V30 58 N -1.7999 -5.8418 -0.7253 0
M  V30 59 H -1.2370 -6.8771 1.0256 0
M  V30 60 N 0.8894 -6.0288 -0.5042 0
M  V30 61 H 0.0566 -7.5748 -1.6709 0
M  V30 62 C -1.2910 -0.1031 -5.4203 0
M  V30 63 C -1.0132 1.3858 -5.1161 0
M  V30 64 N -2.1163 -0.6162 -4.3757 0
M  V30 65 H -0.3401 -0.6523 -5.5164 0
M  V30 66 N -0.4790 1.4915 -3.7901 0
M  V30 67 H -1.9560 1.9409 -5.2236 0
M  V30 68 C 4.2818 -0.0644 2.3125 0
M  V30 69 C 3.8836 1.4250 2.2383 0
M  V30 70 N 3.9559 -0.6655 1.0606 0
M  V30 71 H 3.7693 -0.5449 3.1616 0
M  V30 72 N 2.4854 1.5083 1.9470 0
M  V30 73 H 4.4990 1.9055 1.4634 0
M  V30 74 H -2.3704 0.9111 2.8227 0
M  V30 75 H 1.3201 0.5938 -3.6588 0
M  V30 76 H 1.6963 -1.5001 -4.6264 0
M  V30 77 H 4.4491 -1.2900 -3.7567 0
M  V30 78 H -5.4307 2.1120 2.8174 0
M  V30 79 H -6.6598 -0.0976 2.4905 0
M  V30 80 H 3.3700 -0.2845 -6.2592 0
M  V30 81 H 3.8835 1.5973 -3.9332 0
M  V30 82 H -1.8993 -7.8573 -0.3175 0
M  V30 83 H 0.6334 -8.0172 -0.0285 0
M  V30 84 H -1.8387 -0.1646 -6.3649 0
M  V30 85 H -0.2752 1.7668 -5.8256 0
M  V30 86 H 5.3640 -0.1250 2.4580 0
M  V30 87 H 4.0663 1.8944 3.2072 0
M  V30 END ATOM
M  V30 BEGIN BOND
M  V30 1 1 1 2
M  V30 2 1 2 14
M  V30 3 2 2 48
M  V30 4 1 3 1
M  V30 5 1 3 5
M  V30 6 2 4 3
M  V30 7 2 6 7
M  V30 8 1 6 4
M  V30 9 1 7 9
M  V30 10 1 8 6
M  V30 11 1 9 11
M  V30 12 2 9 1
M  V30 13 2 10 64
M  V30 14 1 10 7
M  V30 15 1 12 4
M  V30 16 1 12 15
M  V30 17 1 13 10
M  V30 18 1 16 17
M  V30 19 1 17 54
M  V30 20 1 17 52
M  V30 21 1 18 16
M  V30 22 1 18 20
M  V30 23 2 19 18
M  V30 24 2 21 22
M  V30 25 1 21 19
M  V30 26 1 22 24
M  V30 27 1 23 21
M  V30 28 1 24 26
M  V30 29 2 24 16
M  V30 30 1 25 22
M  V30 31 1 27 19
M  V30 32 1 27 29
M  V30 33 1 28 25
M  V30 34 1 30 31
M  V30 35 1 31 74
M  V30 36 2 31 46
M  V30 37 1 32 34
M  V30 38 1 32 30
M  V30 39 2 33 32
M  V30 40 2 35 36
M  V30 41 1 35 33
M  V30 42 1 36 38
M  V30 43 1 37 35
M  V30 44 1 38 40
M  V30 45 2 38 30
M  V30 46 2 39 72
M  V30 47 1 39 36
M  V30 48 1 41 43
M  V30 49 1 41 33
M  V30 50 1 42 39
M  V30 51 1 44 78
M  V30 52 1 45 44
M  V30 53 1 45 79
M  V30 54 1 46 44
M  V30 55 1 47 44
M  V30 56 1 48 45
M  V30 57 1 49 45
M  V30 58 1 50 80
M  V30 59 1 51 55
M  V30 60 1 51 81
M  V30 61 1 51 50
M  V30 62 1 52 77
M  V30 63 1 52 50
M  V30 64 1 53 50
M  V30 65 1 54 51
M  V30 66 1 56 58
M  V30 67 1 56 59
M  V30 68 1 57 56
M  V30 69 1 57 60
M  V30 70 2 58 12
M  V30 71 2 60 25
M  V30 72 1 61 57
M  V30 73 1 62 64
M  V30 74 1 62 63
M  V30 75 1 63 66
M  V30 76 1 63 67
M  V30 77 1 65 62
M  V30 78 2 66 41
M  V30 79 1 68 70
M  V30 80 1 68 71
M  V30 81 1 69 87
M  V30 82 1 69 68
M  V30 83 1 69 72
M  V30 84 2 70 27
M  V30 85 1 73 69
M  V30 86 1 75 54
M  V30 87 1 76 17
M  V30 88 1 82 56
M  V30 89 1 83 57
M  V30 90 1 84 62
M  V30 91 1 85 63
M  V30 92 1 86 68
M  V30 END BOND
M  V30 END CTAB
M  END

$$$$
