
 OpenBabel02282012083D

177182  0  0  1  0  0  0  0  0999 V2000
   -3.8871   -1.6289   -0.8302 C   0  0  0  0  0  0  0  0  0  0  0  0
   -4.2367   -1.2328    0.5458 C   0  0  0  0  0  0  0  0  0  0  0  0
   -3.0995   -2.7569   -1.0918 C   0  0  0  0  0  0  0  0  0  0  0  0
   -2.7117   -3.0668   -2.4035 C   0  0  0  0  0  0  0  0  0  0  0  0
   -2.7823   -3.3936   -0.2741 H   0  0  0  0  0  0  0  0  0  0  0  0
   -3.0977   -2.2140   -3.4616 C   0  0  0  0  0  0  0  0  0  0  0  0
   -3.8975   -1.0830   -3.2033 C   0  0  0  0  0  0  0  0  0  0  0  0
   -2.7816   -2.4268   -4.4757 H   0  0  0  0  0  0  0  0  0  0  0  0
   -4.3009   -0.8143   -1.8864 C   0  0  0  0  0  0  0  0  0  0  0  0
   -4.2470   -0.1295   -4.2864 C   0  0  0  0  0  0  0  0  0  0  0  0
   -4.8931    0.0663   -1.6700 H   0  0  0  0  0  0  0  0  0  0  0  0
   -1.9090   -4.2925   -2.6266 C   0  0  0  0  0  0  0  0  0  0  0  0
   -3.7332   -0.1993   -5.2418 H   0  0  0  0  0  0  0  0  0  0  0  0
   -4.8851   -0.3703    0.6859 H   0  0  0  0  0  0  0  0  0  0  0  0
   -1.6931   -4.9308   -1.7725 H   0  0  0  0  0  0  0  0  0  0  0  0
    3.4144   -3.5203    0.0703 C   0  0  0  0  0  0  0  0  0  0  0  0
    3.7085   -4.4010    1.2741 C   0  0  2  0  0  0  0  0  0  0  0  0
    3.8854   -2.1983    0.0222 C   0  0  0  0  0  0  0  0  0  0  0  0
    3.6567   -1.3978   -1.1031 C   0  0  0  0  0  0  0  0  0  0  0  0
    4.4486   -1.7942    0.8520 H   0  0  0  0  0  0  0  0  0  0  0  0
    2.9368   -1.9165   -2.1895 C   0  0  0  0  0  0  0  0  0  0  0  0
    2.4413   -3.2261   -2.1528 C   0  0  0  0  0  0  0  0  0  0  0  0
    2.7604   -1.3027   -3.0651 H   0  0  0  0  0  0  0  0  0  0  0  0
    2.6832   -4.0274   -1.0198 C   0  0  0  0  0  0  0  0  0  0  0  0
    1.7019   -3.7461   -3.3248 C   0  0  0  0  0  0  0  0  0  0  0  0
    2.3178   -5.0466   -0.9912 H   0  0  0  0  0  0  0  0  0  0  0  0
    4.1934   -0.0239   -1.1266 C   0  0  0  0  0  0  0  0  0  0  0  0
    1.5713   -3.1034   -4.1924 H   0  0  0  0  0  0  0  0  0  0  0  0
    4.6639    0.3688   -0.2277 H   0  0  0  0  0  0  0  0  0  0  0  0
   -1.2308    1.4821    0.3659 C   0  0  0  0  0  0  0  0  0  0  0  0
   -1.2205    0.6715    1.6119 C   0  0  0  0  0  0  0  0  0  0  0  0
   -2.4601    1.8731   -0.1967 C   0  0  0  0  0  0  0  0  0  0  0  0
   -2.5056    2.5001   -1.4451 C   0  0  0  0  0  0  0  0  0  0  0  0
   -3.3895    1.6336    0.3042 H   0  0  0  0  0  0  0  0  0  0  0  0
   -1.3173    2.7729   -2.1234 C   0  0  0  0  0  0  0  0  0  0  0  0
   -0.0788    2.4345   -1.5671 C   0  0  0  0  0  0  0  0  0  0  0  0
   -1.3529    3.2496   -3.0966 H   0  0  0  0  0  0  0  0  0  0  0  0
   -0.0326    1.7772   -0.3188 C   0  0  0  0  0  0  0  0  0  0  0  0
    1.1256    2.7519   -2.3610 C   0  0  0  0  0  0  0  0  0  0  0  0
    0.9191    1.4702    0.0985 H   0  0  0  0  0  0  0  0  0  0  0  0
   -3.8127    2.7899   -2.0624 C   0  0  0  0  0  0  0  0  0  0  0  0
    0.9764    3.1025   -3.3801 H   0  0  0  0  0  0  0  0  0  0  0  0
   -4.7155    2.5890   -1.4903 H   0  0  0  0  0  0  0  0  0  0  0  0
   -2.4911   -0.5538    3.2903 C   0  0  1  0  0  0  0  0  0  0  0  0
   -3.8485   -1.2687    2.9151 C   0  0  1  0  0  0  0  0  0  0  0  0
   -2.3246    0.4562    2.2496 N   0  0  0  0  0  0  0  0  0  0  0  0
   -1.6551   -1.2867    3.1985 H   0  0  0  0  0  0  0  0  0  0  0  0
   -2.3774    0.0771    4.7150 C   0  0  0  0  0  0  0  0  0  0  0  0
   -3.6548   -1.7752    1.5622 N   0  0  0  0  0  0  0  0  0  0  0  0
   -4.6350   -0.4767    2.8919 H   0  0  0  0  0  0  0  0  0  0  0  0
   -4.4241   -2.3995    3.8308 C   0  0  0  0  0  0  0  0  0  0  0  0
   -3.3386    0.5725    4.9687 H   0  0  0  0  0  0  0  0  0  0  0  0
   -1.2934    1.1717    4.7815 C   0  0  0  0  0  0  0  0  0  0  0  0
   -1.9783   -0.9868    5.7679 C   0  0  0  0  0  0  0  0  0  0  0  0
   -3.5949   -3.0656    4.1499 H   0  0  0  0  0  0  0  0  0  0  0  0
   -5.4315   -3.2900    3.0679 C   0  0  0  0  0  0  0  0  0  0  0  0
   -5.2025   -1.8241    5.0404 C   0  0  0  0  0  0  0  0  0  0  0  0
   -2.6427   -1.8608    5.8198 H   0  0  0  0  0  0  0  0  0  0  0  0
   -1.9476   -0.5308    6.7804 H   0  0  0  0  0  0  0  0  0  0  0  0
   -0.9686   -1.3921    5.5391 H   0  0  0  0  0  0  0  0  0  0  0  0
   -1.5337    2.0125    4.0980 H   0  0  0  0  0  0  0  0  0  0  0  0
   -0.2966    0.7599    4.5121 H   0  0  0  0  0  0  0  0  0  0  0  0
   -1.2375    1.5964    5.8069 H   0  0  0  0  0  0  0  0  0  0  0  0
   -4.6304   -1.1441    5.6859 H   0  0  0  0  0  0  0  0  0  0  0  0
   -5.5746   -2.6511    5.6825 H   0  0  0  0  0  0  0  0  0  0  0  0
   -6.0810   -1.2408    4.6876 H   0  0  0  0  0  0  0  0  0  0  0  0
   -4.9469   -3.8058    2.2124 H   0  0  0  0  0  0  0  0  0  0  0  0
   -6.2827   -2.6862    2.6835 H   0  0  0  0  0  0  0  0  0  0  0  0
   -5.8312   -4.0842    3.7346 H   0  0  0  0  0  0  0  0  0  0  0  0
    4.3679   -3.5539    3.3332 C   0  0  1  0  0  0  0  0  0  0  0  0
    5.2930   -4.7129    2.8998 C   0  0  1  0  0  0  0  0  0  0  0  0
    3.1759   -3.8108    2.5195 N   0  0  0  0  0  0  0  0  0  0  0  0
    4.7891   -2.5918    2.9632 H   0  0  0  0  0  0  0  0  0  0  0  0
    4.0549   -3.3398    4.8473 C   0  0  0  0  0  0  0  0  0  0  0  0
    5.1557   -4.6382    1.4481 N   0  0  0  0  0  0  0  0  0  0  0  0
    4.8479   -5.6905    3.2054 H   0  0  0  0  0  0  0  0  0  0  0  0
    6.7792   -4.7195    3.3752 C   0  0  0  0  0  0  0  0  0  0  0  0
    3.9351   -4.3315    5.3346 H   0  0  0  0  0  0  0  0  0  0  0  0
    2.7350   -2.5678    5.0523 C   0  0  0  0  0  0  0  0  0  0  0  0
    5.1595   -2.5004    5.5337 C   0  0  0  0  0  0  0  0  0  0  0  0
    7.1575   -3.6745    3.3919 H   0  0  0  0  0  0  0  0  0  0  0  0
    7.6854   -5.5092    2.4090 C   0  0  0  0  0  0  0  0  0  0  0  0
    6.9162   -5.3975    4.7589 C   0  0  0  0  0  0  0  0  0  0  0  0
    6.1786   -2.8961    5.4215 H   0  0  0  0  0  0  0  0  0  0  0  0
    4.9485   -2.4057    6.6204 H   0  0  0  0  0  0  0  0  0  0  0  0
    5.1900   -1.4785    5.0972 H   0  0  0  0  0  0  0  0  0  0  0  0
    1.8694   -3.1265    4.6417 H   0  0  0  0  0  0  0  0  0  0  0  0
    2.7785   -1.5711    4.5622 H   0  0  0  0  0  0  0  0  0  0  0  0
    2.5383   -2.4242    6.1367 H   0  0  0  0  0  0  0  0  0  0  0  0
    6.2681   -4.9770    5.5422 H   0  0  0  0  0  0  0  0  0  0  0  0
    7.9684   -5.3386    5.1113 H   0  0  0  0  0  0  0  0  0  0  0  0
    6.6351   -6.4706    4.6875 H   0  0  0  0  0  0  0  0  0  0  0  0
    7.6907   -5.0519    1.3981 H   0  0  0  0  0  0  0  0  0  0  0  0
    7.3472   -6.5642    2.3205 H   0  0  0  0  0  0  0  0  0  0  0  0
    8.7358   -5.4996    2.7723 H   0  0  0  0  0  0  0  0  0  0  0  0
   -0.8402   -5.9100   -4.0564 C   0  0  1  0  0  0  0  0  0  0  0  0
    0.6214   -5.5490   -4.5109 C   0  0  1  0  0  0  0  0  0  0  0  0
   -1.5253   -4.6453   -3.8062 N   0  0  0  0  0  0  0  0  0  0  0  0
   -0.7651   -6.4876   -3.1045 H   0  0  0  0  0  0  0  0  0  0  0  0
   -1.7399   -6.7827   -4.9995 C   0  0  0  0  0  0  0  0  0  0  0  0
    1.2708   -4.9606   -3.3477 N   0  0  0  0  0  0  0  0  0  0  0  0
    0.5587   -4.7932   -5.3289 H   0  0  0  0  0  0  0  0  0  0  0  0
    1.5454   -6.6934   -5.0561 C   0  0  0  0  0  0  0  0  0  0  0  0
   -1.6422   -6.4110   -6.0407 H   0  0  0  0  0  0  0  0  0  0  0  0
   -3.2390   -6.6530   -4.6428 C   0  0  0  0  0  0  0  0  0  0  0  0
   -1.4145   -8.2937   -4.8888 C   0  0  0  0  0  0  0  0  0  0  0  0
    1.4414   -7.5848   -4.4030 H   0  0  0  0  0  0  0  0  0  0  0  0
    3.0414   -6.3044   -4.9984 C   0  0  0  0  0  0  0  0  0  0  0  0
    1.2550   -7.0231   -6.5408 C   0  0  0  0  0  0  0  0  0  0  0  0
   -0.3790   -8.5718   -5.1221 H   0  0  0  0  0  0  0  0  0  0  0  0
   -2.0620   -8.8738   -5.5806 H   0  0  0  0  0  0  0  0  0  0  0  0
   -1.6064   -8.6518   -3.8540 H   0  0  0  0  0  0  0  0  0  0  0  0
   -3.5963   -5.6091   -4.7667 H   0  0  0  0  0  0  0  0  0  0  0  0
   -3.4266   -6.9734   -3.5950 H   0  0  0  0  0  0  0  0  0  0  0  0
   -3.8550   -7.2793   -5.3236 H   0  0  0  0  0  0  0  0  0  0  0  0
    0.2242   -7.3295   -6.7605 H   0  0  0  0  0  0  0  0  0  0  0  0
    1.9143   -7.8501   -6.8816 H   0  0  0  0  0  0  0  0  0  0  0  0
    1.4574   -6.1342   -7.1764 H   0  0  0  0  0  0  0  0  0  0  0  0
    3.3734   -6.1223   -3.9545 H   0  0  0  0  0  0  0  0  0  0  0  0
    3.2377   -5.3910   -5.6006 H   0  0  0  0  0  0  0  0  0  0  0  0
    3.6726   -7.1321   -5.3877 H   0  0  0  0  0  0  0  0  0  0  0  0
   -5.2612    1.9802   -4.9450 C   0  0  1  0  0  0  0  0  0  0  0  0
   -5.1715    3.2385   -3.9959 C   0  0  1  0  0  0  0  0  0  0  0  0
   -5.0684    0.8427   -4.0522 N   0  0  0  0  0  0  0  0  0  0  0  0
   -4.4087    2.0010   -5.6641 H   0  0  0  0  0  0  0  0  0  0  0  0
   -6.5657    1.8194   -5.7911 C   0  0  0  0  0  0  0  0  0  0  0  0
   -3.8924    3.1159   -3.3107 N   0  0  0  0  0  0  0  0  0  0  0  0
   -5.9868    3.1415   -3.2400 H   0  0  0  0  0  0  0  0  0  0  0  0
   -5.3147    4.6709   -4.6095 C   0  0  0  0  0  0  0  0  0  0  0  0
   -7.4365    2.1243   -5.1724 H   0  0  0  0  0  0  0  0  0  0  0  0
   -6.8183    0.3544   -6.2011 C   0  0  0  0  0  0  0  0  0  0  0  0
   -6.4831    2.6281   -7.1092 C   0  0  0  0  0  0  0  0  0  0  0  0
   -4.7756    4.7020   -5.5802 H   0  0  0  0  0  0  0  0  0  0  0  0
   -4.6588    5.7478   -3.7162 C   0  0  0  0  0  0  0  0  0  0  0  0
   -6.7983    5.0872   -4.7598 C   0  0  0  0  0  0  0  0  0  0  0  0
   -6.2673    3.6987   -6.9839 H   0  0  0  0  0  0  0  0  0  0  0  0
   -7.4374    2.5421   -7.6715 H   0  0  0  0  0  0  0  0  0  0  0  0
   -5.6660    2.2315   -7.7501 H   0  0  0  0  0  0  0  0  0  0  0  0
   -6.9548   -0.2908   -5.3082 H   0  0  0  0  0  0  0  0  0  0  0  0
   -5.9733   -0.0402   -6.8060 H   0  0  0  0  0  0  0  0  0  0  0  0
   -7.7516    0.2774   -6.7994 H   0  0  0  0  0  0  0  0  0  0  0  0
   -7.4174    4.4009   -5.3540 H   0  0  0  0  0  0  0  0  0  0  0  0
   -6.8662    6.0904   -5.2328 H   0  0  0  0  0  0  0  0  0  0  0  0
   -7.2817    5.1436   -3.7603 H   0  0  0  0  0  0  0  0  0  0  0  0
   -3.5681    5.5695   -3.6072 H   0  0  0  0  0  0  0  0  0  0  0  0
   -5.1211    5.7606   -2.7052 H   0  0  0  0  0  0  0  0  0  0  0  0
   -4.7729    6.7540   -4.1742 H   0  0  0  0  0  0  0  0  0  0  0  0
    4.6676    2.0494   -2.2479 C   0  0  1  0  0  0  0  0  0  0  0  0
    3.4785    2.9422   -2.7482 C   0  0  1  0  0  0  0  0  0  0  0  0
    4.1530    0.6882   -2.2021 N   0  0  0  0  0  0  0  0  0  0  0  0
    4.9376    2.3643   -1.2127 H   0  0  0  0  0  0  0  0  0  0  0  0
    5.9918    2.0774   -3.0931 C   0  0  0  0  0  0  0  0  0  0  0  0
    2.3257    2.6429   -1.8994 N   0  0  0  0  0  0  0  0  0  0  0  0
    3.2176    2.5790   -3.7713 H   0  0  0  0  0  0  0  0  0  0  0  0
    3.7629    4.4880   -2.8441 C   0  0  0  0  0  0  0  0  0  0  0  0
    5.7295    2.0828   -4.1729 H   0  0  0  0  0  0  0  0  0  0  0  0
    6.8474    0.8099   -2.8700 C   0  0  0  0  0  0  0  0  0  0  0  0
    6.9065    3.2714   -2.7262 C   0  0  0  0  0  0  0  0  0  0  0  0
    4.4646    4.7579   -2.0275 H   0  0  0  0  0  0  0  0  0  0  0  0
    2.5350    5.3934   -2.6132 C   0  0  0  0  0  0  0  0  0  0  0  0
    4.3141    4.8591   -4.2428 C   0  0  0  0  0  0  0  0  0  0  0  0
    6.4576    4.2653   -2.8419 H   0  0  0  0  0  0  0  0  0  0  0  0
    7.8168    3.2608   -3.3636 H   0  0  0  0  0  0  0  0  0  0  0  0
    7.2251    3.1961   -1.6644 H   0  0  0  0  0  0  0  0  0  0  0  0
    6.3023   -0.1050   -3.1840 H   0  0  0  0  0  0  0  0  0  0  0  0
    7.1352    0.7085   -1.8013 H   0  0  0  0  0  0  0  0  0  0  0  0
    7.7713    0.8525   -3.4865 H   0  0  0  0  0  0  0  0  0  0  0  0
    5.1938    4.2764   -4.5573 H   0  0  0  0  0  0  0  0  0  0  0  0
    4.5864    5.9355   -4.2786 H   0  0  0  0  0  0  0  0  0  0  0  0
    3.5374    4.6722   -5.0163 H   0  0  0  0  0  0  0  0  0  0  0  0
    2.1002    5.2197   -1.6062 H   0  0  0  0  0  0  0  0  0  0  0  0
    1.7568    5.2374   -3.3887 H   0  0  0  0  0  0  0  0  0  0  0  0
    2.8376    6.4620   -2.6522 H   0  0  0  0  0  0  0  0  0  0  0  0
   -0.3051    0.1642    1.9071 H   0  0  0  0  0  0  0  0  0  0  0  0
    5.7021   -3.8053    1.1212 H   0  0  0  0  0  0  0  0  0  0  0  0
    3.2312   -5.3973    1.1173 H   0  0  0  0  0  0  0  0  0  0  0  0
    2.6117   -4.5557    2.9958 H   0  0  0  0  0  0  0  0  0  0  0  0
  1  2  1  0  0  0  0
  2 14  1  0  0  0  0
  2 49  2  0  0  0  0
  3  1  1  0  0  0  0
  3  5  1  0  0  0  0
  4  3  2  0  0  0  0
  6  7  2  0  0  0  0
  6  4  1  0  0  0  0
  7  9  1  0  0  0  0
  8  6  1  0  0  0  0
  9 11  1  0  0  0  0
  9  1  2  0  0  0  0
 10124  2  0  0  0  0
 10  7  1  0  0  0  0
 12  4  1  0  0  0  0
 12 15  1  0  0  0  0
 13 10  1  0  0  0  0
 16 17  1  0  0  0  0
 17176  1  6  0  0  0
 17 75  1  0  0  0  0
 17 72  1  0  0  0  0
 18 16  1  0  0  0  0
 18 20  1  0  0  0  0
 19 18  2  0  0  0  0
 21 22  2  0  0  0  0
 21 19  1  0  0  0  0
 22 24  1  0  0  0  0
 23 21  1  0  0  0  0
 24 26  1  0  0  0  0
 24 16  2  0  0  0  0
 25 22  1  0  0  0  0
 27 19  1  0  0  0  0
 27 29  1  0  0  0  0
 28 25  1  0  0  0  0
 30 31  1  0  0  0  0
 31174  1  0  0  0  0
 31 46  2  0  0  0  0
 32 34  1  0  0  0  0
 32 30  1  0  0  0  0
 33 32  2  0  0  0  0
 35 36  2  0  0  0  0
 35 33  1  0  0  0  0
 36 38  1  0  0  0  0
 37 35  1  0  0  0  0
 38 40  1  0  0  0  0
 38 30  2  0  0  0  0
 39153  2  0  0  0  0
 39 36  1  0  0  0  0
 41 43  1  0  0  0  0
 41 33  1  0  0  0  0
 42 39  1  0  0  0  0
 44 47  1  6  0  0  0
 44 48  1  0  0  0  0
 45 50  1  6  0  0  0
 45 44  1  0  0  0  0
 45 51  1  0  0  0  0
 46 44  1  0  0  0  0
 48 53  1  0  0  0  0
 48 52  1  0  0  0  0
 48 54  1  0  0  0  0
 49 45  1  0  0  0  0
 51 55  1  0  0  0  0
 51 57  1  0  0  0  0
 53 63  1  0  0  0  0
 54 58  1  0  0  0  0
 54 59  1  0  0  0  0
 56 69  1  0  0  0  0
 56 51  1  0  0  0  0
 57 65  1  0  0  0  0
 57 64  1  0  0  0  0
 60 54  1  0  0  0  0
 61 53  1  0  0  0  0
 62 53  1  0  0  0  0
 66 57  1  0  0  0  0
 67 56  1  0  0  0  0
 68 56  1  0  0  0  0
 70 73  1  6  0  0  0
 70 74  1  0  0  0  0
 71 76  1  1  0  0  0
 71 70  1  0  0  0  0
 71 77  1  0  0  0  0
 72177  1  0  0  0  0
 72 70  1  0  0  0  0
 74 79  1  0  0  0  0
 74 78  1  0  0  0  0
 74 80  1  0  0  0  0
 75 71  1  0  0  0  0
 77 81  1  0  0  0  0
 77 83  1  0  0  0  0
 79 89  1  0  0  0  0
 80 85  1  0  0  0  0
 82 95  1  0  0  0  0
 82 77  1  0  0  0  0
 83 91  1  0  0  0  0
 83 90  1  0  0  0  0
 84 80  1  0  0  0  0
 86 80  1  0  0  0  0
 87 79  1  0  0  0  0
 88 79  1  0  0  0  0
 92 83  1  0  0  0  0
 93 82  1  0  0  0  0
 94 82  1  0  0  0  0
 96 98  1  0  0  0  0
 96 99  1  1  0  0  0
 97102  1  6  0  0  0
 97 96  1  0  0  0  0
 97101  1  0  0  0  0
 98 12  2  0  0  0  0
100106  1  0  0  0  0
100105  1  0  0  0  0
100 96  1  0  0  0  0
101 25  2  0  0  0  0
103108  1  0  0  0  0
103 97  1  0  0  0  0
103107  1  0  0  0  0
104100  1  0  0  0  0
105114  1  0  0  0  0
106112  1  0  0  0  0
108119  1  0  0  0  0
109103  1  0  0  0  0
110106  1  0  0  0  0
111106  1  0  0  0  0
113105  1  0  0  0  0
115105  1  0  0  0  0
116109  1  0  0  0  0
117109  1  0  0  0  0
118109  1  0  0  0  0
120108  1  0  0  0  0
121108  1  0  0  0  0
122125  1  6  0  0  0
122124  1  0  0  0  0
122123  1  0  0  0  0
123127  1  0  0  0  0
123128  1  1  0  0  0
126130  1  0  0  0  0
126122  1  0  0  0  0
127 41  2  0  0  0  0
129123  1  0  0  0  0
129134  1  0  0  0  0
131126  1  0  0  0  0
131139  1  0  0  0  0
132136  1  0  0  0  0
132126  1  0  0  0  0
133129  1  0  0  0  0
134145  1  0  0  0  0
134146  1  0  0  0  0
135129  1  0  0  0  0
135144  1  0  0  0  0
137132  1  0  0  0  0
138132  1  0  0  0  0
140131  1  0  0  0  0
141131  1  0  0  0  0
142135  1  0  0  0  0
143135  1  0  0  0  0
147134  1  0  0  0  0
148150  1  0  0  0  0
148151  1  1  0  0  0
149154  1  6  0  0  0
149148  1  0  0  0  0
149153  1  0  0  0  0
150 27  2  0  0  0  0
152157  1  0  0  0  0
152158  1  0  0  0  0
152148  1  0  0  0  0
155149  1  0  0  0  0
155160  1  0  0  0  0
155159  1  0  0  0  0
156152  1  0  0  0  0
157166  1  0  0  0  0
158164  1  0  0  0  0
160171  1  0  0  0  0
161155  1  0  0  0  0
162158  1  0  0  0  0
163158  1  0  0  0  0
165157  1  0  0  0  0
167157  1  0  0  0  0
168161  1  0  0  0  0
169161  1  0  0  0  0
170161  1  0  0  0  0
172160  1  0  0  0  0
173160  1  0  0  0  0
175 75  1  0  0  0  0
M  END
