
     RDKit          3D

  0  0  0  0  0  0  0  0  0  0999 V3000
M  V30 BEGIN CTAB
M  V30 COUNTS 137 147 0 0 0
M  V30 BEGIN ATOM
M  V30 1 C -2.7642 -1.9163 -0.4886 0
M  V30 2 C -2.8385 -1.5802 0.9243 0
M  V30 3 C -2.0666 -3.0229 -0.9712 0
M  V30 4 C -2.0287 -3.2901 -2.3373 0
M  V30 5 H -1.5682 -3.6705 -0.2662 0
M  V30 6 C -2.6343 -2.4043 -3.2287 0
M  V30 7 C -3.3274 -1.2939 -2.7632 0
M  V30 8 H -2.5635 -2.6175 -4.2844 0
M  V30 9 C -3.4149 -1.0784 -1.3901 0
M  V30 10 C -3.8936 -0.3243 -3.6921 0
M  V30 11 H -3.9763 -0.2247 -1.0448 0
M  V30 12 C -1.3638 -4.4840 -2.8396 0
M  V30 13 H -3.4590 -0.3350 -4.7044 0
M  V30 14 H -3.5753 -0.7957 1.1566 0
M  V30 15 H -0.9051 -5.1307 -2.0778 0
M  V30 16 C 2.2114 -2.9216 -0.1961 0
M  V30 17 C 1.8476 -3.5506 1.1231 0
M  V30 18 C 2.8578 -1.6956 -0.2495 0
M  V30 19 C 3.1998 -1.1223 -1.4733 0
M  V30 20 H 3.0809 -1.1779 0.6717 0
M  V30 21 C 2.8544 -1.7744 -2.6547 0
M  V30 22 C 2.2097 -3.0037 -2.6115 0
M  V30 23 H 3.1024 -1.3036 -3.5935 0
M  V30 24 C 1.9110 -3.5785 -1.3759 0
M  V30 25 C 1.7547 -3.6630 -3.8268 0
M  V30 26 H 1.4222 -4.5392 -1.3624 0
M  V30 27 C 3.8809 0.1615 -1.4972 0
M  V30 28 H 1.6814 -3.0270 -4.7231 0
M  V30 29 H 4.0218 0.6390 -0.5143 0
M  V30 30 C -0.5954 1.4764 0.2767 0
M  V30 31 C -0.4363 0.6702 1.4787 0
M  V30 32 C -1.8691 1.8345 -0.1602 0
M  V30 33 C -2.0548 2.4340 -1.4011 0
M  V30 34 H -2.7105 1.5939 0.4709 0
M  V30 35 C -0.9444 2.7211 -2.1935 0
M  V30 36 C 0.3374 2.4330 -1.7396 0
M  V30 37 H -1.1061 3.1699 -3.1616 0
M  V30 38 C 0.5047 1.7957 -0.5110 0
M  V30 39 C 1.4978 2.7109 -2.5770 0
M  V30 40 H 1.5038 1.5360 -0.1978 0
M  V30 41 C -3.4080 2.6282 -1.8944 0
M  V30 42 H 1.3022 2.7634 -3.6599 0
M  V30 43 H -4.2059 2.3901 -1.1742 0
M  V30 44 C -1.2113 -0.4346 3.3692 0
M  V30 45 C -2.2761 -1.5411 3.1535 0
M  V30 46 N -1.3678 0.5195 2.3174 0
M  V30 47 H -0.2092 -0.8955 3.3447 0
M  V30 48 C -1.4465 0.2042 4.7385 0
M  V30 49 N -2.1263 -2.0903 1.8354 0
M  V30 50 H -3.2620 -1.0554 3.2630 0
M  V30 51 C -2.1143 -2.6109 4.2290 0
M  V30 52 H -2.4371 0.6619 4.7494 0
M  V30 53 C -1.3329 -0.8447 5.8407 0
M  V30 54 H -1.1192 -3.0525 4.1495 0
M  V30 55 C -2.3116 -1.9937 5.6103 0
M  V30 56 H -1.5300 -0.3805 6.8092 0
M  V30 57 H -0.3138 -1.2368 5.8604 0
M  V30 58 H -2.1746 -2.7566 6.3796 0
M  V30 59 H -3.3345 -1.6186 5.6910 0
M  V30 60 C 2.5697 -2.7967 3.2165 0
M  V30 61 C 2.8821 -4.2922 3.0364 0
M  V30 62 N 1.6005 -2.5255 2.1632 0
M  V30 63 H 3.4785 -2.2233 2.9717 0
M  V30 64 C 2.1927 -2.5106 4.6561 0
M  V30 65 N 2.9145 -4.4485 1.5905 0
M  V30 66 H 2.0197 -4.8761 3.3904 0
M  V30 67 C 4.1060 -4.6768 3.8412 0
M  V30 68 H 1.3085 -3.0918 4.9316 0
M  V30 69 C 3.3818 -2.9174 5.5329 0
M  V30 70 H 4.9685 -4.0939 3.5085 0
M  V30 71 C 3.7987 -4.3748 5.3119 0
M  V30 72 H 3.1280 -2.7718 6.5848 0
M  V30 73 H 4.2273 -2.2648 5.3021 0
M  V30 74 H 4.6766 -4.5926 5.9230 0
M  V30 75 H 2.9914 -5.0318 5.6440 0
M  V30 76 C -0.6123 -5.9209 -4.5073 0
M  V30 77 C 0.7919 -5.4571 -4.9709 0
M  V30 78 N -1.3345 -4.7663 -4.0699 0
M  V30 79 H -0.4573 -6.6387 -3.6829 0
M  V30 80 C -1.3414 -6.5946 -5.6669 0
M  V30 81 N 1.4156 -4.8769 -3.8273 0
M  V30 82 H 0.6679 -4.7269 -5.7916 0
M  V30 83 C 1.5847 -6.6664 -5.4668 0
M  V30 84 H -1.4817 -5.8613 -6.4628 0
M  V30 85 C -0.5432 -7.7878 -6.1805 0
M  V30 86 H 1.7200 -7.3590 -4.6344 0
M  V30 87 C 0.8534 -7.3531 -6.6149 0
M  V30 88 H -1.0680 -8.2484 -7.0199 0
M  V30 89 H -0.4589 -8.5344 -5.3873 0
M  V30 90 H 1.4271 -8.2202 -6.9484 0
M  V30 91 H 0.7714 -6.6612 -7.4566 0
M  V30 92 C -5.1819 1.5319 -4.2594 0
M  V30 93 C -5.0284 2.8830 -3.5173 0
M  V30 94 N -4.7832 0.5014 -3.3519 0
M  V30 95 H -4.5368 1.5503 -5.1565 0
M  V30 96 C -6.6399 1.3678 -4.6898 0
M  V30 97 N -3.6679 2.9645 -3.0832 0
M  V30 98 H -5.7235 2.8637 -2.6586 0
M  V30 99 C -5.3966 4.0226 -4.4611 0
M  V30 100 H -7.2721 1.3546 -3.8003 0
M  V30 101 C -7.0437 2.5126 -5.6139 0
M  V30 102 H -4.7134 4.0110 -5.3119 0
M  V30 103 C -6.8388 3.8637 -4.9331 0
M  V30 104 H -8.0903 2.3980 -5.9032 0
M  V30 105 H -6.4385 2.4710 -6.5227 0
M  V30 106 H -7.0913 4.6691 -5.6257 0
M  V30 107 H -7.5086 3.9395 -4.0732 0
M  V30 108 C 4.8554 2.0150 -2.4874 0
M  V30 109 C 3.7778 3.0190 -2.9543 0
M  V30 110 N 4.2869 0.7045 -2.5617 0
M  V30 111 H 5.1195 2.2807 -1.4476 0
M  V30 112 C 6.0845 2.1322 -3.3849 0
M  V30 113 N 2.6500 2.8585 -2.0905 0
M  V30 114 H 3.5185 2.7987 -4.0055 0
M  V30 115 C 4.3424 4.4378 -2.8607 0
M  V30 116 H 5.7980 1.8771 -4.4064 0
M  V30 117 C 6.6458 3.5493 -3.3276 0
M  V30 118 H 4.5859 4.6516 -1.8185 0
M  V30 119 C 5.5855 4.5689 -3.7348 0
M  V30 120 H 7.5113 3.6301 -3.9884 0
M  V30 121 H 6.9803 3.7635 -2.3098 0
M  V30 122 H 5.9890 5.5798 -3.6484 0
M  V30 123 H 5.3100 4.4060 -4.7794 0
M  V30 124 H 0.5278 0.1493 1.5754 0
M  V30 125 H 3.8106 -4.1280 1.2303 0
M  V30 126 H 0.9432 -4.1606 0.9848 0
M  V30 127 H 0.6488 -2.6160 2.5026 0
M  V30 128 H -0.7098 0.9955 4.8928 0
M  V30 129 H -2.8459 -3.4032 4.0589 0
M  V30 130 H 1.9684 -1.4511 4.7978 0
M  V30 131 H 4.3390 -5.7346 3.7121 0
M  V30 132 H -2.3287 -6.9144 -5.3277 0
M  V30 133 H 2.5730 -6.3326 -5.7905 0
M  V30 134 H -6.7559 0.4089 -5.1998 0
M  V30 135 H -5.2700 4.9741 -3.9411 0
M  V30 136 H 6.8366 1.4117 -3.0575 0
M  V30 137 H 3.5760 5.1477 -3.1799 0
M  V30 END ATOM
M  V30 BEGIN BOND
M  V30 1 1 1 2
M  V30 2 1 2 14
M  V30 3 2 2 49
M  V30 4 1 3 1
M  V30 5 1 3 5
M  V30 6 2 4 3
M  V30 7 2 6 7
M  V30 8 1 6 4
M  V30 9 1 7 9
M  V30 10 1 8 6
M  V30 11 1 9 11
M  V30 12 2 9 1
M  V30 13 2 10 94
M  V30 14 1 10 7
M  V30 15 1 12 4
M  V30 16 1 12 15
M  V30 17 1 13 10
M  V30 18 1 16 17
M  V30 19 1 17 126
M  V30 20 1 17 65
M  V30 21 1 17 62
M  V30 22 1 18 16
M  V30 23 1 18 20
M  V30 24 1 19 27
M  V30 25 2 19 18
M  V30 26 2 21 22
M  V30 27 1 21 19
M  V30 28 1 22 24
M  V30 29 1 23 21
M  V30 30 1 24 26
M  V30 31 2 24 16
M  V30 32 1 25 22
M  V30 33 1 27 29
M  V30 34 1 28 25
M  V30 35 1 30 31
M  V30 36 1 31 124
M  V30 37 2 31 46
M  V30 38 1 32 34
M  V30 39 1 32 30
M  V30 40 2 33 32
M  V30 41 2 35 36
M  V30 42 1 35 33
M  V30 43 1 36 38
M  V30 44 1 37 35
M  V30 45 1 38 40
M  V30 46 2 38 30
M  V30 47 2 39 113
M  V30 48 1 39 36
M  V30 49 1 41 43
M  V30 50 1 41 33
M  V30 51 1 42 39
M  V30 52 1 44 47
M  V30 53 1 44 48
M  V30 54 1 45 50
M  V30 55 1 45 44
M  V30 56 1 45 51
M  V30 57 1 46 44
M  V30 58 1 48 128
M  V30 59 1 48 53
M  V30 60 1 49 45
M  V30 61 1 51 55
M  V30 62 1 52 48
M  V30 63 1 53 57
M  V30 64 1 53 56
M  V30 65 1 54 51
M  V30 66 1 55 59
M  V30 67 1 55 53
M  V30 68 1 55 58
M  V30 69 1 60 63
M  V30 70 1 60 64
M  V30 71 1 61 66
M  V30 72 1 61 60
M  V30 73 1 61 67
M  V30 74 1 62 127
M  V30 75 1 62 60
M  V30 76 1 64 130
M  V30 77 1 64 68
M  V30 78 1 64 69
M  V30 79 1 65 61
M  V30 80 1 67 71
M  V30 81 1 69 72
M  V30 82 1 70 67
M  V30 83 1 71 75
M  V30 84 1 71 69
M  V30 85 1 71 74
M  V30 86 1 73 69
M  V30 87 1 76 78
M  V30 88 1 76 79
M  V30 89 1 77 82
M  V30 90 1 77 76
M  V30 91 1 77 81
M  V30 92 2 78 12
M  V30 93 1 80 132
M  V30 94 1 80 76
M  V30 95 2 81 25
M  V30 96 1 83 77
M  V30 97 1 83 86
M  V30 98 1 84 80
M  V30 99 1 85 80
M  V30 100 1 85 89
M  V30 101 1 87 85
M  V30 102 1 87 83
M  V30 103 1 88 85
M  V30 104 1 90 87
M  V30 105 1 91 87
M  V30 106 1 92 95
M  V30 107 1 92 93
M  V30 108 1 92 94
M  V30 109 1 93 97
M  V30 110 1 93 98
M  V30 111 1 96 92
M  V30 112 1 96 100
M  V30 113 2 97 41
M  V30 114 1 99 135
M  V30 115 1 99 93
M  V30 116 1 101 103
M  V30 117 1 101 96
M  V30 118 1 102 99
M  V30 119 1 103 99
M  V30 120 1 103 107
M  V30 121 1 104 101
M  V30 122 1 105 101
M  V30 123 1 106 103
M  V30 124 1 108 111
M  V30 125 1 109 114
M  V30 126 1 109 108
M  V30 127 1 109 113
M  V30 128 1 110 108
M  V30 129 2 110 27
M  V30 130 1 112 136
M  V30 131 1 112 108
M  V30 132 1 115 109
M  V30 133 1 115 118
M  V30 134 1 116 112
M  V30 135 1 117 112
M  V30 136 1 117 121
M  V30 137 1 119 122
M  V30 138 1 119 117
M  V30 139 1 119 115
M  V30 140 1 120 117
M  V30 141 1 123 119
M  V30 142 1 125 65
M  V30 143 1 129 51
M  V30 144 1 131 67
M  V30 145 1 133 83
M  V30 146 1 134 96
M  V30 147 1 137 115
M  V30 END BOND
M  V30 END CTAB
M  END

$$$$
