87

C -4.594000 -0.994600 -1.220700
C -5.387100 0.101500 -0.685200
C -4.332600 -2.140200 -0.469900
C -3.492200 -3.130600 -0.966100
H -4.791000 -2.232800 0.503200
C -2.870900 -2.949800 -2.203000
C -3.137600 -1.822300 -2.969200
H -2.191300 -3.714000 -2.547700
C -4.024900 -0.863400 -2.482300
C -2.445900 -1.602200 -4.232900
H -4.229500 -0.000200 -3.095600
C -3.241500 -4.340600 -0.194800
H -1.543100 -2.211700 -4.392000
H -5.677300 0.872200 -1.414200
H -3.834200 -4.446900 0.727600
C 3.364400 -3.303500 -0.292600
C 4.373900 -3.956600 -1.115000
C 3.535900 -1.987300 0.132500
C 2.568600 -1.362700 0.913900
H 4.428700 -1.448000 -0.138100
C 1.416700 -2.064800 1.263000
C 1.238900 -3.384900 0.859800
H 0.658000 -1.582800 1.865000
C 2.217800 -3.998500 0.080800
C 0.047600 -4.112400 1.268500
H 2.060700 -5.022600 -0.221400
C 2.756000 -0.001000 1.392700
H -0.713700 -3.516200 1.799100
H 4.160500 -4.999400 -1.398300
H 1.941100 0.402100 2.014500
C -2.009000 2.378600 -0.409000
C -2.992800 2.368400 0.665800
C -2.428300 2.242200 -1.731700
C -1.505100 2.104400 -2.761300
H -3.488400 2.214200 -1.928200
C -0.143200 2.151900 -2.467000
C 0.290200 2.355800 -1.161400
H 0.562200 2.038400 -3.276000
C -0.648300 2.447000 -0.132700
C 1.714900 2.469700 -0.879800
H -0.291200 2.578000 0.877500
C -1.980400 1.848600 -4.112300
H 2.389300 2.201700 -1.707100
H -3.062500 1.977700 -4.262300
C -5.180500 2.364300 1.490400
C -6.288300 1.411500 0.990100
N -4.223900 2.522100 0.443000
N -5.672900 0.200000 0.540800
C 6.508600 -3.221900 -3.632600
C 6.383500 -4.008500 -2.306500
N 6.890200 -1.837300 -3.476000
N 5.426800 -3.362100 -1.472000
C -2.125700 -6.363300 0.204000
C -1.298800 -5.996200 1.453400
N -2.401600 -5.198100 -0.583400
N -0.094900 -5.346600 1.054100
C -2.063300 -0.459200 -6.232300
C -1.818400 1.065100 -6.278600
N -2.840600 -0.746300 -5.069900
N -1.218800 1.460000 -5.041000
C 3.911100 2.004500 1.612400
C 3.543900 2.975200 0.474600
N 3.796600 0.663600 1.134900
N 2.141100 2.885000 0.232200
H 6.212200 -1.371200 -2.881500
H 7.790800 -1.773800 -3.011600
H -2.594600 2.180600 1.675400
H 5.543400 -3.246200 -4.146300
H 7.249900 -3.718200 -4.265000
H 7.348200 -3.974000 -1.788300
H 6.128300 -5.060200 -2.522400
H -4.732400 1.970100 2.416000
H -5.634900 3.337900 1.698600
H -6.840500 1.918600 0.184700
H -6.962500 1.179300 1.817000
H 4.952400 2.171300 1.897600
H 3.248300 2.209300 2.467200
H 4.149400 2.739200 -0.414700
H 3.759300 3.994300 0.808100
H -1.545900 -7.044200 -0.422300
H -3.044900 -6.861600 0.541400
H -2.784000 1.564100 -6.449700
H -1.128700 1.293600 -7.093500
H -2.641300 -0.741500 -7.117100
H -1.100800 -0.994500 -6.239500
H -1.030700 -6.919100 1.974700
H -1.916200 -5.365400 2.117300
