
 OpenBabel02082013283D

 99102  0  0  0  0  0  0  0  0999 V2000
   -4.0268   -1.8320   -0.1354 C   0  0  0  0  0  0  0  0  0  0  0  0
   -4.7199   -1.7175    1.1672 C   0  0  0  0  0  0  0  0  0  0  0  0
   -3.2311   -2.9491   -0.4456 C   0  0  0  0  0  0  0  0  0  0  0  0
   -2.6163   -3.0589   -1.7029 C   0  0  0  0  0  0  0  0  0  0  0  0
   -3.1061   -3.7436    0.2807 H   0  0  0  0  0  0  0  0  0  0  0  0
   -2.7923   -2.0362   -2.6497 C   0  0  0  0  0  0  0  0  0  0  0  0
   -3.5802   -0.9155   -2.3483 C   0  0  0  0  0  0  0  0  0  0  0  0
   -2.3311   -2.1178   -3.6271 H   0  0  0  0  0  0  0  0  0  0  0  0
   -4.1950   -0.8189   -1.0892 C   0  0  0  0  0  0  0  0  0  0  0  0
   -3.7816    0.1247   -3.3786 C   0  0  0  0  0  0  0  0  0  0  0  0
   -4.8167    0.0371   -0.8539 H   0  0  0  0  0  0  0  0  0  0  0  0
   -1.8296   -4.2716   -2.0208 C   0  0  0  0  0  0  0  0  0  0  0  0
   -3.2646    0.0248   -4.3304 H   0  0  0  0  0  0  0  0  0  0  0  0
   -5.3109   -0.8274    1.3703 H   0  0  0  0  0  0  0  0  0  0  0  0
   -1.6838   -5.0175   -1.2426 H   0  0  0  0  0  0  0  0  0  0  0  0
    3.5999   -2.5713   -0.1354 C   0  0  0  0  0  0  0  0  0  0  0  0
    3.8474   -3.2288    1.1671 C   0  0  0  0  0  0  0  0  0  0  0  0
    4.1696   -1.3237   -0.4457 C   0  0  0  0  0  0  0  0  0  0  0  0
    3.9572   -0.7364   -1.7029 C   0  0  0  0  0  0  0  0  0  0  0  0
    4.7951   -0.8182    0.2807 H   0  0  0  0  0  0  0  0  0  0  0  0
    3.1596   -1.4001   -2.6498 C   0  0  0  0  0  0  0  0  0  0  0  0
    2.5829   -2.6428   -2.3483 C   0  0  0  0  0  0  0  0  0  0  0  0
    2.9996   -0.9599   -3.6271 H   0  0  0  0  0  0  0  0  0  0  0  0
    2.8067   -3.2236   -1.0892 C   0  0  0  0  0  0  0  0  0  0  0  0
    1.7828   -3.3373   -3.3786 C   0  0  0  0  0  0  0  0  0  0  0  0
    2.3762   -4.1899   -0.8539 H   0  0  0  0  0  0  0  0  0  0  0  0
    4.6142    0.5513   -2.0209 C   0  0  0  0  0  0  0  0  0  0  0  0
    1.6108   -2.8397   -4.3304 H   0  0  0  0  0  0  0  0  0  0  0  0
    3.3720   -4.1857    1.3703 H   0  0  0  0  0  0  0  0  0  0  0  0
    5.1871    1.0505   -1.2426 H   0  0  0  0  0  0  0  0  0  0  0  0
    0.4268    4.4033   -0.1353 C   0  0  0  0  0  0  0  0  0  0  0  0
    0.8726    4.9463    1.1671 C   0  0  0  0  0  0  0  0  0  0  0  0
   -0.9384    4.2728   -0.4457 C   0  0  0  0  0  0  0  0  0  0  0  0
   -1.3409    3.7952   -1.7029 C   0  0  0  0  0  0  0  0  0  0  0  0
   -1.6890    4.5618    0.2807 H   0  0  0  0  0  0  0  0  0  0  0  0
   -0.3673    3.4363   -2.6498 C   0  0  0  0  0  0  0  0  0  0  0  0
    0.9972    3.5583   -2.3483 C   0  0  0  0  0  0  0  0  0  0  0  0
   -0.6685    3.0777   -3.6271 H   0  0  0  0  0  0  0  0  0  0  0  0
    1.3884    4.0424   -1.0892 C   0  0  0  0  0  0  0  0  0  0  0  0
    1.9988    3.2126   -3.3786 C   0  0  0  0  0  0  0  0  0  0  0  0
    2.4405    4.1528   -0.8539 H   0  0  0  0  0  0  0  0  0  0  0  0
   -2.7845    3.7203   -2.0209 C   0  0  0  0  0  0  0  0  0  0  0  0
    1.6539    2.8148   -4.3304 H   0  0  0  0  0  0  0  0  0  0  0  0
    1.9390    5.0131    1.3703 H   0  0  0  0  0  0  0  0  0  0  0  0
   -3.5033    3.9669   -1.2426 H   0  0  0  0  0  0  0  0  0  0  0  0
   -4.2804   -2.7277    4.4346 C   0  0  0  0  0  0  0  0  0  0  0  0
   -5.3847   -2.6242    3.3033 C   0  0  0  0  0  0  0  0  0  0  0  0
   -3.4305   -1.5251    4.3281 N   0  0  0  0  0  0  0  0  0  0  0  0
   -4.6759   -2.6770    2.0299 N   0  0  0  0  0  0  0  0  0  0  0  0
    4.5024   -2.3430    4.4346 C   0  0  0  0  0  0  0  0  0  0  0  0
    4.9650   -3.3511    3.3033 C   0  0  0  0  0  0  0  0  0  0  0  0
    3.0360   -2.2083    4.3281 N   0  0  0  0  0  0  0  0  0  0  0  0
    4.6563   -2.7110    2.0299 N   0  0  0  0  0  0  0  0  0  0  0  0
   -0.2221    5.0708    4.4346 C   0  0  0  0  0  0  0  0  0  0  0  0
    0.4197    5.9754    3.3033 C   0  0  0  0  0  0  0  0  0  0  0  0
    0.3945    3.7334    4.3281 N   0  0  0  0  0  0  0  0  0  0  0  0
    0.0196    5.3880    2.0299 N   0  0  0  0  0  0  0  0  0  0  0  0
   -0.7139   -5.7256   -3.5875 C   0  0  0  0  0  0  0  0  0  0  0  0
    0.6571   -5.2923   -4.2218 C   0  0  0  0  0  0  0  0  0  0  0  0
   -1.4120   -4.4987   -3.2226 N   0  0  0  0  0  0  0  0  0  0  0  0
    1.3728   -4.5480   -3.1952 N   0  0  0  0  0  0  0  0  0  0  0  0
   -4.9118    2.0771   -4.2218 C   0  0  0  0  0  0  0  0  0  0  0  0
   -4.6015    3.4810   -3.5875 C   0  0  0  0  0  0  0  0  0  0  0  0
   -4.6250    1.0851   -3.1952 N   0  0  0  0  0  0  0  0  0  0  0  0
   -3.1899    3.4722   -3.2226 N   0  0  0  0  0  0  0  0  0  0  0  0
    5.3154    2.2446   -3.5876 C   0  0  0  0  0  0  0  0  0  0  0  0
    4.2547    3.2152   -4.2218 C   0  0  0  0  0  0  0  0  0  0  0  0
    4.6020    1.0265   -3.2226 N   0  0  0  0  0  0  0  0  0  0  0  0
    3.2523    3.4628   -3.1952 N   0  0  0  0  0  0  0  0  0  0  0  0
    0.3470    3.3687    3.3513 H   0  0  0  0  0  0  0  0  0  0  0  0
   -0.1689    3.0391    4.8686 H   0  0  0  0  0  0  0  0  0  0  0  0
   -3.0909   -1.3838    3.3513 H   0  0  0  0  0  0  0  0  0  0  0  0
   -2.5474   -1.6659    4.8686 H   0  0  0  0  0  0  0  0  0  0  0  0
    2.7439   -1.9848    3.3513 H   0  0  0  0  0  0  0  0  0  0  0  0
    2.7164   -1.3732    4.8686 H   0  0  0  0  0  0  0  0  0  0  0  0
    3.8021    2.7594   -5.0776 H   0  0  0  0  0  0  0  0  0  0  0  0
    4.7106    4.1278   -4.5445 H   0  0  0  0  0  0  0  0  0  0  0  0
    5.7511    2.6914   -2.7185 H   0  0  0  0  0  0  0  0  0  0  0  0
    6.1069    2.0357   -4.2766 H   0  0  0  0  0  0  0  0  0  0  0  0
    4.4333   -4.2754    3.3913 H   0  0  0  0  0  0  0  0  0  0  0  0
    6.0089   -3.5716    3.3835 H   0  0  0  0  0  0  0  0  0  0  0  0
    4.9692   -1.3911    4.2903 H   0  0  0  0  0  0  0  0  0  0  0  0
    4.7808   -2.7050    5.4023 H   0  0  0  0  0  0  0  0  0  0  0  0
    0.4886   -4.6725   -5.0776 H   0  0  0  0  0  0  0  0  0  0  0  0
    1.2195   -6.1435   -4.5445 H   0  0  0  0  0  0  0  0  0  0  0  0
   -0.5448   -6.3263   -2.7183 H   0  0  0  0  0  0  0  0  0  0  0  0
   -1.2906   -6.3067   -4.2764 H   0  0  0  0  0  0  0  0  0  0  0  0
   -3.6894   -3.6079    4.2903 H   0  0  0  0  0  0  0  0  0  0  0  0
   -4.7331   -2.7878    5.4023 H   0  0  0  0  0  0  0  0  0  0  0  0
   -5.9192   -1.7015    3.3913 H   0  0  0  0  0  0  0  0  0  0  0  0
   -6.0977   -3.4179    3.3835 H   0  0  0  0  0  0  0  0  0  0  0  0
   -1.2799    4.9991    4.2903 H   0  0  0  0  0  0  0  0  0  0  0  0
   -0.0478    5.4929    5.4023 H   0  0  0  0  0  0  0  0  0  0  0  0
    1.4861    5.9770    3.3913 H   0  0  0  0  0  0  0  0  0  0  0  0
    0.0888    6.9898    3.3835 H   0  0  0  0  0  0  0  0  0  0  0  0
   -5.2063    3.6349   -2.7183 H   0  0  0  0  0  0  0  0  0  0  0  0
   -4.8164    4.2710   -4.2765 H   0  0  0  0  0  0  0  0  0  0  0  0
   -4.2908    1.9131   -5.0776 H   0  0  0  0  0  0  0  0  0  0  0  0
   -5.9301    2.0157   -4.5445 H   0  0  0  0  0  0  0  0  0  0  0  0
  1  2  1  0  0  0  0
  2 14  1  0  0  0  0
  2 49  2  0  0  0  0
  3  1  1  0  0  0  0
  3  5  1  0  0  0  0
  4  3  2  0  0  0  0
  6  7  2  0  0  0  0
  6  4  1  0  0  0  0
  7  9  1  0  0  0  0
  8  6  1  0  0  0  0
  9 11  1  0  0  0  0
  9  1  2  0  0  0  0
 10 64  2  0  0  0  0
 10  7  1  0  0  0  0
 12  4  1  0  0  0  0
 12 15  1  0  0  0  0
 13 10  1  0  0  0  0
 16 17  1  0  0  0  0
 17 29  1  0  0  0  0
 17 53  2  0  0  0  0
 18 16  1  0  0  0  0
 18 20  1  0  0  0  0
 19 18  2  0  0  0  0
 21 22  2  0  0  0  0
 21 19  1  0  0  0  0
 22 24  1  0  0  0  0
 23 21  1  0  0  0  0
 24 26  1  0  0  0  0
 24 16  2  0  0  0  0
 25 61  2  0  0  0  0
 25 22  1  0  0  0  0
 27 19  1  0  0  0  0
 27 30  1  0  0  0  0
 28 25  1  0  0  0  0
 31 32  1  0  0  0  0
 32 44  1  0  0  0  0
 32 57  2  0  0  0  0
 33 31  1  0  0  0  0
 33 35  1  0  0  0  0
 34 33  2  0  0  0  0
 36 37  2  0  0  0  0
 36 34  1  0  0  0  0
 37 39  1  0  0  0  0
 38 36  1  0  0  0  0
 39 41  1  0  0  0  0
 39 31  2  0  0  0  0
 40 69  2  0  0  0  0
 40 37  1  0  0  0  0
 42 34  1  0  0  0  0
 42 45  1  0  0  0  0
 43 40  1  0  0  0  0
 46 89  1  0  0  0  0
 47 91  1  0  0  0  0
 47 90  1  0  0  0  0
 47 46  1  0  0  0  0
 48 46  1  0  0  0  0
 48 73  1  0  0  0  0
 49 47  1  0  0  0  0
 50 83  1  0  0  0  0
 51 81  1  0  0  0  0
 51 80  1  0  0  0  0
 51 50  1  0  0  0  0
 52 50  1  0  0  0  0
 52 75  1  0  0  0  0
 53 51  1  0  0  0  0
 54 93  1  0  0  0  0
 55 95  1  0  0  0  0
 55 94  1  0  0  0  0
 55 54  1  0  0  0  0
 56 54  1  0  0  0  0
 56 71  1  0  0  0  0
 57 55  1  0  0  0  0
 58 60  1  0  0  0  0
 58 86  1  0  0  0  0
 59 58  1  0  0  0  0
 59 61  1  0  0  0  0
 60 12  2  0  0  0  0
 62 63  1  0  0  0  0
 62 64  1  0  0  0  0
 63 65  1  0  0  0  0
 63 96  1  0  0  0  0
 65 42  2  0  0  0  0
 66 68  1  0  0  0  0
 66 78  1  0  0  0  0
 67 66  1  0  0  0  0
 67 69  1  0  0  0  0
 68 27  2  0  0  0  0
 70 56  1  0  0  0  0
 72 48  1  0  0  0  0
 74 52  1  0  0  0  0
 76 67  1  0  0  0  0
 77 67  1  0  0  0  0
 79 66  1  0  0  0  0
 82 50  1  0  0  0  0
 84 59  1  0  0  0  0
 85 59  1  0  0  0  0
 87 58  1  0  0  0  0
 88 46  1  0  0  0  0
 92 54  1  0  0  0  0
 97 63  1  0  0  0  0
 98 62  1  0  0  0  0
 99 62  1  0  0  0  0
M  END
