
     RDKit          3D

  0  0  0  0  0  0  0  0  0  0999 V3000
M  V30 BEGIN CTAB
M  V30 COUNTS 177 181 0 0 0
M  V30 BEGIN ATOM
M  V30 1 C -3.2329 -1.7700 -0.5590 0
M  V30 2 C -3.3650 -1.3815 0.8362 0
M  V30 3 C -2.4593 -2.8644 -0.9417 0
M  V30 4 C -2.2823 -3.1703 -2.2866 0
M  V30 5 H -2.0028 -3.4674 -0.1716 0
M  V30 6 C -2.8369 -2.3363 -3.2584 0
M  V30 7 C -3.6060 -1.2387 -2.8917 0
M  V30 8 H -2.6582 -2.5695 -4.2970 0
M  V30 9 C -3.8265 -0.9840 -1.5392 0
M  V30 10 C -4.1100 -0.3074 -3.8922 0
M  V30 11 H -4.4424 -0.1390 -1.2748 0
M  V30 12 C -1.5240 -4.3529 -2.6674 0
M  V30 13 H -3.6506 -0.3853 -4.8902 0
M  V30 14 H -4.0631 -0.5527 1.0286 0
M  V30 15 H -1.0754 -4.9181 -1.8362 0
M  V30 16 C 2.8604 -2.8783 -0.0693 0
M  V30 17 C 2.9404 -3.5462 1.2231 0
M  V30 18 C 3.4090 -1.6059 -0.2312 0
M  V30 19 C 3.3644 -0.9632 -1.4619 0
M  V30 20 H 3.8864 -1.1408 0.6184 0
M  V30 21 C 2.7323 -1.5899 -2.5354 0
M  V30 22 C 2.1836 -2.8588 -2.3907 0
M  V30 23 H 2.6975 -1.0735 -3.4824 0
M  V30 24 C 2.2568 -3.5016 -1.1549 0
M  V30 25 C 1.5632 -3.5186 -3.5318 0
M  V30 26 H 1.8359 -4.4915 -1.0645 0
M  V30 27 C 3.9984 0.3377 -1.6207 0
M  V30 28 H 1.3210 -2.8691 -4.3873 0
M  V30 29 H 2.4919 -4.5512 1.2810 0
M  V30 30 H 4.3324 0.8212 -0.6895 0
M  V30 31 C -0.7392 1.3644 -0.0064 0
M  V30 32 C -0.6153 0.5836 1.2193 0
M  V30 33 C -2.0040 1.7242 -0.4702 0
M  V30 34 C -2.1651 2.3229 -1.7142 0
M  V30 35 H -2.8568 1.4909 0.1474 0
M  V30 36 C -1.0369 2.6115 -2.4796 0
M  V30 37 C 0.2355 2.3278 -1.9977 0
M  V30 38 H -1.1749 3.0695 -3.4473 0
M  V30 39 C 0.3786 1.6832 -0.7692 0
M  V30 40 C 1.4030 2.6878 -2.7919 0
M  V30 41 H 1.3728 1.4330 -0.4310 0
M  V30 42 C -3.5047 2.5629 -2.2286 0
M  V30 43 H 1.2155 2.8554 -3.8649 0
M  V30 44 H -4.3226 2.3952 -1.5120 0
M  V30 45 C -1.4793 -0.4059 3.1586 0
M  V30 46 C -2.7366 -1.3170 3.0656 0
M  V30 47 N -1.5670 0.4825 2.0382 0
M  V30 48 H -0.5834 -1.0425 3.0836 0
M  V30 49 C -1.3886 0.3980 4.4714 0
M  V30 50 N -2.6837 -1.9058 1.7587 0
M  V30 51 H -3.6179 -0.6597 3.1610 0
M  V30 52 C -2.8182 -2.4219 4.1310 0
M  V30 53 H -1.4657 -0.3100 5.3023 0
M  V30 54 C -2.5027 1.4342 4.5904 0
M  V30 55 C -0.0200 1.0735 4.5543 0
M  V30 56 H -2.8470 -1.9486 5.1176 0
M  V30 57 C -1.6255 -3.3700 4.0632 0
M  V30 58 C -4.1215 -3.1974 3.9353 0
M  V30 59 H 0.0993 1.7864 3.7408 0
M  V30 60 H 0.7767 0.3341 4.4936 0
M  V30 61 H 0.0754 1.6089 5.4963 0
M  V30 62 H -3.4764 0.9582 4.6725 0
M  V30 63 H -2.5023 2.0786 3.7153 0
M  V30 64 H -2.3483 2.0446 5.4775 0
M  V30 65 H -4.2299 -3.9585 4.7048 0
M  V30 66 H -4.1223 -3.6821 2.9616 0
M  V30 67 H -4.9796 -2.5303 3.9886 0
M  V30 68 H -1.7919 -4.2271 4.7125 0
M  V30 69 H -0.7176 -2.8697 4.3865 0
M  V30 70 H -1.4968 -3.7201 3.0425 0
M  V30 71 C 2.9281 -2.7226 4.5526 0
M  V30 72 C 3.5918 -3.6421 3.4756 0
M  V30 73 N 2.0930 -1.6847 3.9604 0
M  V30 74 H 3.7125 -2.2016 5.1116 0
M  V30 75 C 2.0734 -3.5258 5.5494 0
M  V30 76 N 3.4989 -2.9913 2.2064 0
M  V30 77 H 3.0551 -4.6098 3.4579 0
M  V30 78 C 5.0857 -3.9126 3.7689 0
M  V30 79 H 1.2826 -4.0305 4.9812 0
M  V30 80 C 1.4211 -2.5754 6.5532 0
M  V30 81 C 2.8787 -4.5809 6.3033 0
M  V30 82 H 5.1777 -4.1554 4.8314 0
M  V30 83 C 5.9470 -2.6882 3.4682 0
M  V30 84 C 5.5724 -5.1081 2.9522 0
M  V30 85 H 3.7012 -4.1162 6.8430 0
M  V30 86 H 3.2827 -5.3362 5.6346 0
M  V30 87 H 2.2381 -5.0807 7.0270 0
M  V30 88 H 2.1809 -2.1213 7.1850 0
M  V30 89 H 0.7221 -3.1171 7.1863 0
M  V30 90 H 0.8907 -1.7825 6.0355 0
M  V30 91 H 6.6236 -5.3005 3.1543 0
M  V30 92 H 5.4584 -4.9110 1.8876 0
M  V30 93 H 5.0068 -6.0044 3.2004 0
M  V30 94 H 6.9776 -2.8784 3.7595 0
M  V30 95 H 5.5912 -1.8167 4.0112 0
M  V30 96 H 5.9191 -2.4640 2.4051 0
M  V30 97 C -0.6484 -5.8863 -4.1902 0
M  V30 98 C 0.7347 -5.3773 -4.6772 0
M  V30 99 N -1.4160 -4.7205 -3.8683 0
M  V30 100 H -0.4666 -6.5008 -3.2915 0
M  V30 101 C -1.4266 -6.7195 -5.2243 0
M  V30 102 N 1.3497 -4.7601 -3.5424 0
M  V30 103 H 0.5580 -4.6432 -5.4834 0
M  V30 104 C 1.6660 -6.4856 -5.2070 0
M  V30 105 H -0.8331 -7.6047 -5.4725 0
M  V30 106 C -1.7102 -5.9257 -6.4959 0
M  V30 107 C -2.7388 -7.1880 -4.5947 0
M  V30 108 H 1.1704 -6.9705 -6.0534 0
M  V30 109 C 1.9784 -7.5282 -4.1378 0
M  V30 110 C 2.9607 -5.8519 -5.7168 0
M  V30 111 H -2.5497 -7.7571 -3.6866 0
M  V30 112 H -3.2873 -7.8206 -5.2889 0
M  V30 113 H -3.3570 -6.3298 -4.3411 0
M  V30 114 H -2.1924 -4.9874 -6.2375 0
M  V30 115 H -2.3693 -6.4920 -7.1504 0
M  V30 116 H -0.7936 -5.7111 -7.0392 0
M  V30 117 H 3.4955 -5.3769 -4.8973 0
M  V30 118 H 2.7506 -5.0991 -6.4741 0
M  V30 119 H 3.6036 -6.6109 -6.1568 0
M  V30 120 H 2.3629 -7.0355 -3.2492 0
M  V30 121 H 2.7279 -8.2255 -4.5058 0
M  V30 122 H 1.0905 -8.0943 -3.8688 0
M  V30 123 C -5.3438 1.5569 -4.5754 0
M  V30 124 C -5.0791 2.9294 -3.8926 0
M  V30 125 N -4.9759 0.5636 -3.6120 0
M  V30 126 H -4.7043 1.4888 -5.4720 0
M  V30 127 C -6.8111 1.3537 -5.0052 0
M  V30 128 N -3.7225 2.8872 -3.4279 0
M  V30 129 H -5.7773 3.0047 -3.0420 0
M  V30 130 C -5.2730 4.1463 -4.8123 0
M  V30 131 H -7.0857 2.1832 -5.6644 0
M  V30 132 C -7.7639 1.3207 -3.8134 0
M  V30 133 C -6.9269 0.0547 -5.8031 0
M  V30 134 H -6.3064 4.1448 -5.1739 0
M  V30 135 C -4.3206 4.1226 -6.0045 0
M  V30 136 C -5.0548 5.4186 -3.9928 0
M  V30 137 H -6.6722 -0.7974 -5.1763 0
M  V30 138 H -6.2572 0.0659 -6.6609 0
M  V30 139 H -7.9442 -0.0752 -6.1652 0
M  V30 140 H -8.7627 1.0447 -4.1445 0
M  V30 141 H -7.8254 2.2923 -3.3305 0
M  V30 142 H -7.4190 0.5892 -3.0876 0
M  V30 143 H -5.2271 6.3003 -4.6057 0
M  V30 144 H -4.0341 5.4469 -3.6184 0
M  V30 145 H -5.7344 5.4522 -3.1435 0
M  V30 146 H -4.5850 3.3348 -6.7052 0
M  V30 147 H -3.3059 3.9561 -5.6546 0
M  V30 148 H -4.3608 5.0724 -6.5333 0
M  V30 149 C 4.7891 2.1516 -2.8409 0
M  V30 150 C 3.6597 3.1854 -3.0944 0
M  V30 151 N 4.1817 0.8579 -2.7532 0
M  V30 152 H 5.2716 2.4201 -1.8853 0
M  V30 153 C 5.8550 2.1421 -3.9531 0
M  V30 154 N 2.5436 2.8200 -2.2768 0
M  V30 155 H 3.3914 3.1531 -4.1646 0
M  V30 156 C 4.0950 4.6269 -2.7468 0
M  V30 157 H 6.1411 3.1785 -4.1627 0
M  V30 158 C 5.3369 1.5003 -5.2374 0
M  V30 159 C 7.0893 1.3886 -3.4588 0
M  V30 160 H 5.0896 4.7893 -3.1757 0
M  V30 161 C 4.1610 4.8608 -1.2397 0
M  V30 162 C 3.1260 5.6212 -3.3844 0
M  V30 163 H 7.5004 1.8597 -2.5681 0
M  V30 164 H 7.8597 1.3758 -4.2263 0
M  V30 165 H 6.8245 0.3615 -3.2163 0
M  V30 166 H 5.0100 0.4851 -5.0329 0
M  V30 167 H 6.1264 1.4760 -5.9852 0
M  V30 168 H 4.4980 2.0565 -5.6468 0
M  V30 169 H 3.1050 5.5042 -4.4662 0
M  V30 170 H 3.4280 6.6409 -3.1565 0
M  V30 171 H 2.1201 5.4668 -2.9984 0
M  V30 172 H 4.8845 4.2010 -0.7690 0
M  V30 173 H 3.1880 4.6762 -0.7923 0
M  V30 174 H 4.4554 5.8882 -1.0370 0
M  V30 175 H 1.3676 -2.1212 3.3966 0
M  V30 176 H 2.6604 -1.1306 3.3266 0
M  V30 177 H 0.3410 0.0522 1.3500 0
M  V30 END ATOM
M  V30 BEGIN BOND
M  V30 1 1 1 2
M  V30 2 1 2 14
M  V30 3 2 2 50
M  V30 4 1 3 1
M  V30 5 1 3 5
M  V30 6 2 4 3
M  V30 7 2 6 7
M  V30 8 1 6 4
M  V30 9 1 7 9
M  V30 10 1 8 6
M  V30 11 1 9 11
M  V30 12 2 9 1
M  V30 13 2 10 125
M  V30 14 1 10 7
M  V30 15 1 12 4
M  V30 16 1 12 15
M  V30 17 1 13 10
M  V30 18 1 16 17
M  V30 19 1 17 29
M  V30 20 2 17 76
M  V30 21 1 18 16
M  V30 22 1 18 20
M  V30 23 2 19 18
M  V30 24 2 21 22
M  V30 25 1 21 19
M  V30 26 1 22 24
M  V30 27 1 23 21
M  V30 28 1 24 26
M  V30 29 2 24 16
M  V30 30 2 25 102
M  V30 31 1 25 22
M  V30 32 1 27 19
M  V30 33 1 27 30
M  V30 34 1 28 25
M  V30 35 1 31 32
M  V30 36 1 32 177
M  V30 37 2 32 47
M  V30 38 1 33 35
M  V30 39 1 33 31
M  V30 40 2 34 33
M  V30 41 2 36 37
M  V30 42 1 36 34
M  V30 43 1 37 39
M  V30 44 1 38 36
M  V30 45 1 39 41
M  V30 46 2 39 31
M  V30 47 2 40 154
M  V30 48 1 40 37
M  V30 49 1 42 44
M  V30 50 1 42 34
M  V30 51 1 43 40
M  V30 52 1 45 48
M  V30 53 1 45 49
M  V30 54 1 46 51
M  V30 55 1 46 45
M  V30 56 1 46 52
M  V30 57 1 47 45
M  V30 58 1 49 53
M  V30 59 1 49 54
M  V30 60 1 49 55
M  V30 61 1 50 46
M  V30 62 1 52 56
M  V30 63 1 52 58
M  V30 64 1 54 64
M  V30 65 1 55 60
M  V30 66 1 57 70
M  V30 67 1 57 52
M  V30 68 1 58 66
M  V30 69 1 58 65
M  V30 70 1 59 55
M  V30 71 1 61 55
M  V30 72 1 62 54
M  V30 73 1 63 54
M  V30 74 1 67 58
M  V30 75 1 68 57
M  V30 76 1 69 57
M  V30 77 1 71 74
M  V30 78 1 71 75
M  V30 79 1 72 77
M  V30 80 1 72 71
M  V30 81 1 73 71
M  V30 82 1 73 176
M  V30 83 1 75 81
M  V30 84 1 75 79
M  V30 85 1 75 80
M  V30 86 1 76 72
M  V30 87 1 78 72
M  V30 88 1 78 82
M  V30 89 1 78 84
M  V30 90 1 80 90
M  V30 91 1 81 86
M  V30 92 1 83 78
M  V30 93 1 84 91
M  V30 94 1 85 81
M  V30 95 1 87 81
M  V30 96 1 88 80
M  V30 97 1 89 80
M  V30 98 1 92 84
M  V30 99 1 93 84
M  V30 100 1 94 83
M  V30 101 1 95 83
M  V30 102 1 96 83
M  V30 103 1 97 99
M  V30 104 1 97 100
M  V30 105 1 98 103
M  V30 106 1 98 97
M  V30 107 1 98 102
M  V30 108 2 99 12
M  V30 109 1 101 107
M  V30 110 1 101 106
M  V30 111 1 101 97
M  V30 112 1 104 98
M  V30 113 1 104 108
M  V30 114 1 105 101
M  V30 115 1 106 115
M  V30 116 1 107 113
M  V30 117 1 109 104
M  V30 118 1 109 120
M  V30 119 1 110 104
M  V30 120 1 111 107
M  V30 121 1 112 107
M  V30 122 1 114 106
M  V30 123 1 116 106
M  V30 124 1 117 110
M  V30 125 1 118 110
M  V30 126 1 119 110
M  V30 127 1 121 109
M  V30 128 1 122 109
M  V30 129 1 123 126
M  V30 130 1 123 125
M  V30 131 1 123 124
M  V30 132 1 124 128
M  V30 133 1 124 129
M  V30 134 1 127 123
M  V30 135 1 127 131
M  V30 136 2 128 42
M  V30 137 1 130 124
M  V30 138 1 130 135
M  V30 139 1 132 127
M  V30 140 1 132 140
M  V30 141 1 133 137
M  V30 142 1 133 127
M  V30 143 1 134 130
M  V30 144 1 135 146
M  V30 145 1 135 147
M  V30 146 1 136 130
M  V30 147 1 136 145
M  V30 148 1 138 133
M  V30 149 1 139 133
M  V30 150 1 141 132
M  V30 151 1 142 132
M  V30 152 1 143 136
M  V30 153 1 144 136
M  V30 154 1 148 135
M  V30 155 1 149 151
M  V30 156 1 149 152
M  V30 157 1 150 155
M  V30 158 1 150 149
M  V30 159 1 150 154
M  V30 160 2 151 27
M  V30 161 1 153 158
M  V30 162 1 153 159
M  V30 163 1 153 149
M  V30 164 1 156 161
M  V30 165 1 156 150
M  V30 166 1 156 160
M  V30 167 1 157 153
M  V30 168 1 158 167
M  V30 169 1 159 165
M  V30 170 1 161 172
M  V30 171 1 162 156
M  V30 172 1 163 159
M  V30 173 1 164 159
M  V30 174 1 166 158
M  V30 175 1 168 158
M  V30 176 1 169 162
M  V30 177 1 170 162
M  V30 178 1 171 162
M  V30 179 1 173 161
M  V30 180 1 174 161
M  V30 181 1 175 73
M  V30 END BOND
M  V30 END CTAB
M  END

$$$$
