
 OpenBabel03112014143D

117122  0  0  1  0  0  0  0  0999 V2000
   -3.7297   -1.6961   -0.5866 C   0  0  0  0  0  0  0  0  0  0  0  0
   -3.9470   -1.2399    0.8000 C   0  0  0  0  0  0  0  0  0  0  0  0
   -2.9758   -2.8420   -0.8744 C   0  0  0  0  0  0  0  0  0  0  0  0
   -2.7116   -3.2036   -2.2036 C   0  0  0  0  0  0  0  0  0  0  0  0
   -2.5814   -3.4462   -0.0656 H   0  0  0  0  0  0  0  0  0  0  0  0
   -3.1938   -2.3942   -3.2535 C   0  0  0  0  0  0  0  0  0  0  0  0
   -3.9584   -1.2488   -2.9718 C   0  0  0  0  0  0  0  0  0  0  0  0
   -2.9728   -2.6494   -4.2830 H   0  0  0  0  0  0  0  0  0  0  0  0
   -4.2331   -0.9181   -1.6347 C   0  0  0  0  0  0  0  0  0  0  0  0
   -4.4058   -0.3537   -4.0680 C   0  0  0  0  0  0  0  0  0  0  0  0
   -4.7966   -0.0222   -1.4029 H   0  0  0  0  0  0  0  0  0  0  0  0
   -1.9128   -4.4222   -2.4636 C   0  0  0  0  0  0  0  0  0  0  0  0
   -4.0383   -0.5360   -5.0710 H   0  0  0  0  0  0  0  0  0  0  0  0
   -4.5769   -0.3673    0.9622 H   0  0  0  0  0  0  0  0  0  0  0  0
   -1.6161   -5.0427   -1.6206 H   0  0  0  0  0  0  0  0  0  0  0  0
    3.2580   -3.3354    0.1725 C   0  0  0  0  0  0  0  0  0  0  0  0
    3.3039   -4.0677    1.4995 C   0  0  2  0  0  0  0  0  0  0  0  0
    3.8471   -2.0682    0.0492 C   0  0  0  0  0  0  0  0  0  0  0  0
    3.7878   -1.3648   -1.1560 C   0  0  0  0  0  0  0  0  0  0  0  0
    4.3283   -1.6118    0.8986 H   0  0  0  0  0  0  0  0  0  0  0  0
    3.1501   -1.9432   -2.2646 C   0  0  0  0  0  0  0  0  0  0  0  0
    2.5564   -3.2088   -2.1659 C   0  0  0  0  0  0  0  0  0  0  0  0
    3.0964   -1.4015   -3.2016 H   0  0  0  0  0  0  0  0  0  0  0  0
    2.6040   -3.9014   -0.9393 C   0  0  0  0  0  0  0  0  0  0  0  0
    1.8804   -3.7730   -3.3581 C   0  0  0  0  0  0  0  0  0  0  0  0
    2.1404   -4.8763   -0.8497 H   0  0  0  0  0  0  0  0  0  0  0  0
    4.3488    0.0003   -1.2227 C   0  0  0  0  0  0  0  0  0  0  0  0
    1.8649   -3.1761   -4.2624 H   0  0  0  0  0  0  0  0  0  0  0  0
    4.7290    0.4611   -0.3135 H   0  0  0  0  0  0  0  0  0  0  0  0
   -1.0484    1.7008    0.2743 C   0  0  0  0  0  0  0  0  0  0  0  0
   -0.9169    0.9296    1.5357 C   0  0  0  0  0  0  0  0  0  0  0  0
   -2.3197    2.0362   -0.2218 C   0  0  0  0  0  0  0  0  0  0  0  0
   -2.4596    2.6598   -1.4673 C   0  0  0  0  0  0  0  0  0  0  0  0
   -3.2083    1.7583    0.3323 H   0  0  0  0  0  0  0  0  0  0  0  0
   -1.3168    2.9943   -2.2069 C   0  0  0  0  0  0  0  0  0  0  0  0
   -0.0379    2.6890   -1.7181 C   0  0  0  0  0  0  0  0  0  0  0  0
   -1.4206    3.4678   -3.1762 H   0  0  0  0  0  0  0  0  0  0  0  0
    0.0923    2.0270   -0.4798 C   0  0  0  0  0  0  0  0  0  0  0  0
    1.1398    3.0295   -2.5480 C   0  0  0  0  0  0  0  0  0  0  0  0
    1.0738    1.7558   -0.1090 H   0  0  0  0  0  0  0  0  0  0  0  0
   -3.8179    2.8621   -2.0109 C   0  0  0  0  0  0  0  0  0  0  0  0
    0.9843    3.5899   -3.4649 H   0  0  0  0  0  0  0  0  0  0  0  0
   -4.6688    2.6151   -1.3791 H   0  0  0  0  0  0  0  0  0  0  0  0
   -2.0656   -0.2838    3.3584 C   0  0  0  0  0  0  0  0  0  0  0  0
   -3.3294   -1.1487    3.1080 C   0  0  0  0  0  0  0  0  0  0  0  0
   -1.9705    0.6473    2.2321 N   0  0  0  0  0  0  0  0  0  0  0  0
   -3.2629   -1.7300    1.7788 N   0  0  0  0  0  0  0  0  0  0  0  0
   -4.2244   -0.4879    3.1864 H   0  0  0  0  0  0  0  0  0  0  0  0
    3.8414   -3.3956    3.6807 C   0  0  0  0  0  0  0  0  0  0  0  0
    4.5761   -4.6665    3.2731 C   0  0  0  0  0  0  0  0  0  0  0  0
    2.8590   -3.1911    2.6046 N   0  0  0  0  0  0  0  0  0  0  0  0
    4.6452   -4.5777    1.8218 N   0  0  0  0  0  0  0  0  0  0  0  0
   -0.7982   -5.9494   -3.9419 C   0  0  0  0  0  0  0  0  0  0  0  0
    0.6294   -5.6076   -4.4213 C   0  0  0  0  0  0  0  0  0  0  0  0
   -1.5560   -4.7445   -3.6586 N   0  0  0  0  0  0  0  0  0  0  0  0
   -0.7269   -6.5975   -3.0378 H   0  0  0  0  0  0  0  0  0  0  0  0
    1.3303   -4.9417   -3.3201 N   0  0  0  0  0  0  0  0  0  0  0  0
    0.5563   -4.7708   -5.7256 C   0  0  0  0  0  0  0  0  0  0  0  0
   -5.4851    1.7830   -4.6900 C   0  0  0  0  0  0  0  0  0  0  0  0
   -5.3231    3.0846   -3.8599 C   0  0  0  0  0  0  0  0  0  0  0  0
   -5.1366    0.6787   -3.7952 N   0  0  0  0  0  0  0  0  0  0  0  0
   -4.5815    1.8574   -5.9455 C   0  0  0  0  0  0  0  0  0  0  0  0
   -3.9982    3.1112   -3.2649 N   0  0  0  0  0  0  0  0  0  0  0  0
   -6.0988    3.0835   -3.0590 H   0  0  0  0  0  0  0  0  0  0  0  0
    4.6824    2.0647   -2.4070 C   0  0  0  0  0  0  0  0  0  0  0  0
    3.5139    2.8547   -3.0380 C   0  0  0  0  0  0  0  0  0  0  0  0
    4.3083    0.6680   -2.3217 N   0  0  0  0  0  0  0  0  0  0  0  0
    4.9133    2.4747   -1.3967 H   0  0  0  0  0  0  0  0  0  0  0  0
    2.3196    2.6111   -2.2334 N   0  0  0  0  0  0  0  0  0  0  0  0
    0.0570    0.5352    1.8012 H   0  0  0  0  0  0  0  0  0  0  0  0
    5.3791   -3.8800    1.5615 H   0  0  0  0  0  0  0  0  0  0  0  0
    2.6370   -4.9620    1.4486 H   0  0  0  0  0  0  0  0  0  0  0  0
    1.8953   -3.4872    2.8901 H   0  0  0  0  0  0  0  0  0  0  0  0
   -3.4555   -1.9463    3.8715 H   0  0  0  0  0  0  0  0  0  0  0  0
   -1.3437   -6.5303   -4.7171 H   0  0  0  0  0  0  0  0  0  0  0  0
    1.3782   -6.9153   -4.7278 C   0  0  0  0  0  0  0  0  0  0  0  0
   -6.9496    1.6350   -5.1299 C   0  0  0  0  0  0  0  0  0  0  0  0
   -5.4913    3.9987   -4.4691 H   0  0  0  0  0  0  0  0  0  0  0  0
    5.5965    2.1652   -3.0316 H   0  0  0  0  0  0  0  0  0  0  0  0
    3.3045    2.3598   -4.4916 C   0  0  0  0  0  0  0  0  0  0  0  0
    3.8547    4.3565   -3.0466 C   0  0  0  0  0  0  0  0  0  0  0  0
    3.0342    1.2823   -4.5100 H   0  0  0  0  0  0  0  0  0  0  0  0
    4.2325    2.4989   -5.0869 H   0  0  0  0  0  0  0  0  0  0  0  0
    2.4968    2.9220   -5.0036 H   0  0  0  0  0  0  0  0  0  0  0  0
   -2.2462    0.5145    4.6584 C   0  0  0  0  0  0  0  0  0  0  0  0
   -0.8289   -1.2068    3.4959 C   0  0  0  0  0  0  0  0  0  0  0  0
   -3.1393    1.1730    4.5924 H   0  0  0  0  0  0  0  0  0  0  0  0
   -1.3579    1.1558    4.8426 H   0  0  0  0  0  0  0  0  0  0  0  0
   -2.3770   -0.1689    5.5253 H   0  0  0  0  0  0  0  0  0  0  0  0
   -7.2575    2.4913   -5.7683 H   0  0  0  0  0  0  0  0  0  0  0  0
   -7.6219    1.5951   -4.2458 H   0  0  0  0  0  0  0  0  0  0  0  0
   -7.0840    0.6956   -5.7079 H   0  0  0  0  0  0  0  0  0  0  0  0
    0.8657   -7.4875   -5.5315 H   0  0  0  0  0  0  0  0  0  0  0  0
    1.4331   -7.5568   -3.8218 H   0  0  0  0  0  0  0  0  0  0  0  0
    2.4164   -6.6967   -5.0593 H   0  0  0  0  0  0  0  0  0  0  0  0
   -0.9754   -1.9271    4.3296 H   0  0  0  0  0  0  0  0  0  0  0  0
    0.0871   -0.6220    3.7247 H   0  0  0  0  0  0  0  0  0  0  0  0
   -0.6623   -1.7879    2.5634 H   0  0  0  0  0  0  0  0  0  0  0  0
   -3.5116    1.9442   -5.6582 H   0  0  0  0  0  0  0  0  0  0  0  0
   -4.8481    2.7440   -6.5605 H   0  0  0  0  0  0  0  0  0  0  0  0
   -4.7099    0.9620   -6.5894 H   0  0  0  0  0  0  0  0  0  0  0  0
    4.0109    4.7225   -2.0090 H   0  0  0  0  0  0  0  0  0  0  0  0
    3.0320    4.9471   -3.5023 H   0  0  0  0  0  0  0  0  0  0  0  0
    4.7816    4.5443   -3.6302 H   0  0  0  0  0  0  0  0  0  0  0  0
    0.0198   -3.8121   -5.5596 H   0  0  0  0  0  0  0  0  0  0  0  0
    0.0114   -5.3303   -6.5164 H   0  0  0  0  0  0  0  0  0  0  0  0
    1.5747   -4.5486   -6.1112 H   0  0  0  0  0  0  0  0  0  0  0  0
    3.9511   -5.5568    3.5200 H   0  0  0  0  0  0  0  0  0  0  0  0
    5.5667   -4.8010    3.7601 H   0  0  0  0  0  0  0  0  0  0  0  0
    4.8177   -2.1971    3.7272 C   0  0  0  0  0  0  0  0  0  0  0  0
    5.3699   -2.0479    2.7820 H   0  0  0  0  0  0  0  0  0  0  0  0
    5.5809   -2.3533    4.5203 H   0  0  0  0  0  0  0  0  0  0  0  0
    4.2679   -1.2582    3.9501 H   0  0  0  0  0  0  0  0  0  0  0  0
    3.1778   -3.5273    5.0649 C   0  0  0  0  0  0  0  0  0  0  0  0
    2.4566   -4.3713    5.0781 H   0  0  0  0  0  0  0  0  0  0  0  0
    2.6273   -2.5947    5.3163 H   0  0  0  0  0  0  0  0  0  0  0  0
    3.9450   -3.7086    5.8486 H   0  0  0  0  0  0  0  0  0  0  0  0
  1  2  1  0  0  0  0
  2 14  1  0  0  0  0
  2 47  2  0  0  0  0
  3  1  1  0  0  0  0
  3  5  1  0  0  0  0
  4  3  2  0  0  0  0
  6  7  2  0  0  0  0
  6  4  1  0  0  0  0
  7  9  1  0  0  0  0
  8  6  1  0  0  0  0
  9 11  1  0  0  0  0
  9  1  2  0  0  0  0
 10 61  2  0  0  0  0
 10  7  1  0  0  0  0
 12  4  1  0  0  0  0
 12 15  1  0  0  0  0
 13 10  1  0  0  0  0
 16 17  1  0  0  0  0
 17 72  1  6  0  0  0
 17 52  1  0  0  0  0
 17 51  1  0  0  0  0
 18 16  1  0  0  0  0
 18 20  1  0  0  0  0
 19 18  2  0  0  0  0
 21 22  2  0  0  0  0
 21 19  1  0  0  0  0
 22 24  1  0  0  0  0
 23 21  1  0  0  0  0
 24 26  1  0  0  0  0
 24 16  2  0  0  0  0
 25 57  2  0  0  0  0
 25 22  1  0  0  0  0
 27 19  1  0  0  0  0
 27 29  1  0  0  0  0
 28 25  1  0  0  0  0
 30 31  1  0  0  0  0
 31 70  1  0  0  0  0
 31 46  2  0  0  0  0
 32 30  1  0  0  0  0
 32 34  1  0  0  0  0
 33 32  2  0  0  0  0
 35 36  2  0  0  0  0
 35 33  1  0  0  0  0
 36 38  1  0  0  0  0
 37 35  1  0  0  0  0
 38 40  1  0  0  0  0
 38 30  2  0  0  0  0
 39 69  2  0  0  0  0
 39 36  1  0  0  0  0
 41 33  1  0  0  0  0
 41 43  1  0  0  0  0
 42 39  1  0  0  0  0
 44 86  1  0  0  0  0
 44 85  1  0  0  0  0
 45 48  1  0  0  0  0
 45 44  1  0  0  0  0
 45 74  1  0  0  0  0
 46 44  1  0  0  0  0
 47 45  1  0  0  0  0
 49110  1  0  0  0  0
 49114  1  0  0  0  0
 50108  1  0  0  0  0
 50 49  1  0  0  0  0
 50109  1  0  0  0  0
 51 73  1  0  0  0  0
 51 49  1  0  0  0  0
 52 50  1  0  0  0  0
 53 55  1  0  0  0  0
 53 56  1  0  0  0  0
 54 53  1  0  0  0  0
 54 57  1  0  0  0  0
 55 12  2  0  0  0  0
 58105  1  0  0  0  0
 58 54  1  0  0  0  0
 59 60  1  0  0  0  0
 59 61  1  0  0  0  0
 60 63  1  0  0  0  0
 60 64  1  0  0  0  0
 62 99  1  0  0  0  0
 62 59  1  0  0  0  0
 63 41  2  0  0  0  0
 65 67  1  0  0  0  0
 65 68  1  0  0  0  0
 66 65  1  0  0  0  0
 66 69  1  0  0  0  0
 67 27  2  0  0  0  0
 71 52  1  0  0  0  0
 75 53  1  0  0  0  0
 76 54  1  0  0  0  0
 76 94  1  0  0  0  0
 77 59  1  0  0  0  0
 77 91  1  0  0  0  0
 78 60  1  0  0  0  0
 79 65  1  0  0  0  0
 80 66  1  0  0  0  0
 81 66  1  0  0  0  0
 81102  1  0  0  0  0
 82 80  1  0  0  0  0
 83 80  1  0  0  0  0
 84 80  1  0  0  0  0
 85 88  1  0  0  0  0
 85 89  1  0  0  0  0
 86 97  1  0  0  0  0
 86 96  1  0  0  0  0
 87 85  1  0  0  0  0
 90 77  1  0  0  0  0
 92 77  1  0  0  0  0
 93 76  1  0  0  0  0
 95 76  1  0  0  0  0
 98 86  1  0  0  0  0
100 62  1  0  0  0  0
101 62  1  0  0  0  0
103 81  1  0  0  0  0
104 81  1  0  0  0  0
106 58  1  0  0  0  0
107 58  1  0  0  0  0
110113  1  0  0  0  0
110112  1  0  0  0  0
111110  1  0  0  0  0
114115  1  0  0  0  0
114116  1  0  0  0  0
114117  1  0  0  0  0
M  END
