
 OpenBabel02082013573D

118126  0  0  1  0  0  0  0  0999 V2000
   -5.1674   -1.3090   -0.7163 C   0  0  0  0  0  0  0  0  0  0  0  0
   -5.4134   -0.7971    0.6445 C   0  0  0  0  0  0  0  0  0  0  0  0
   -4.4381   -2.4728   -0.9886 C   0  0  0  0  0  0  0  0  0  0  0  0
   -4.1819   -2.8522   -2.3221 C   0  0  0  0  0  0  0  0  0  0  0  0
   -4.0638   -3.0770   -0.1707 H   0  0  0  0  0  0  0  0  0  0  0  0
   -4.6465   -2.0359   -3.3851 C   0  0  0  0  0  0  0  0  0  0  0  0
   -5.3822   -0.8694   -3.1051 C   0  0  0  0  0  0  0  0  0  0  0  0
   -4.4333   -2.3004   -4.4136 H   0  0  0  0  0  0  0  0  0  0  0  0
   -5.6432   -0.5364   -1.7690 C   0  0  0  0  0  0  0  0  0  0  0  0
   -5.8254    0.0763   -4.1669 C   0  0  0  0  0  0  0  0  0  0  0  0
   -6.1864    0.3712   -1.5337 H   0  0  0  0  0  0  0  0  0  0  0  0
   -3.4228   -4.1020   -2.5695 C   0  0  0  0  0  0  0  0  0  0  0  0
   -5.5210   -0.0603   -5.2003 H   0  0  0  0  0  0  0  0  0  0  0  0
   -6.0453    0.0856    0.7349 H   0  0  0  0  0  0  0  0  0  0  0  0
   -3.1666   -4.7323   -1.7207 H   0  0  0  0  0  0  0  0  0  0  0  0
    2.3027   -3.2733   -0.3295 C   0  0  0  0  0  0  0  0  0  0  0  0
    2.5781   -4.0347    0.9085 C   0  0  0  0  0  0  0  0  0  0  0  0
    2.8554   -1.9944   -0.5289 C   0  0  0  0  0  0  0  0  0  0  0  0
    2.5779   -1.2783   -1.7019 C   0  0  0  0  0  0  0  0  0  0  0  0
    3.4909   -1.5526    0.2298 H   0  0  0  0  0  0  0  0  0  0  0  0
    1.7504   -1.8513   -2.6817 C   0  0  0  0  0  0  0  0  0  0  0  0
    1.2016   -3.1245   -2.5011 C   0  0  0  0  0  0  0  0  0  0  0  0
    1.5334   -1.3078   -3.5936 H   0  0  0  0  0  0  0  0  0  0  0  0
    1.4769   -3.8340   -1.3184 C   0  0  0  0  0  0  0  0  0  0  0  0
    0.3559   -3.6927   -3.5748 C   0  0  0  0  0  0  0  0  0  0  0  0
    1.0559   -4.8210   -1.1670 H   0  0  0  0  0  0  0  0  0  0  0  0
    3.1393    0.0767   -1.8976 C   0  0  0  0  0  0  0  0  0  0  0  0
    0.2140   -3.1199   -4.4885 H   0  0  0  0  0  0  0  0  0  0  0  0
    2.1423   -5.0193    1.0474 H   0  0  0  0  0  0  0  0  0  0  0  0
    3.8179    0.4906   -1.1569 H   0  0  0  0  0  0  0  0  0  0  0  0
   -2.2924    2.1742    0.1446 C   0  0  0  0  0  0  0  0  0  0  0  0
   -2.4034    1.5217    1.4740 C   0  0  0  0  0  0  0  0  0  0  0  0
   -3.4280    2.4325   -0.6430 C   0  0  0  0  0  0  0  0  0  0  0  0
   -3.2910    2.9261   -1.9529 C   0  0  0  0  0  0  0  0  0  0  0  0
   -4.4137    2.1893   -0.2641 H   0  0  0  0  0  0  0  0  0  0  0  0
   -2.0078    3.1947   -2.4630 C   0  0  0  0  0  0  0  0  0  0  0  0
   -0.8697    2.9658   -1.6763 C   0  0  0  0  0  0  0  0  0  0  0  0
   -1.8910    3.5555   -3.4780 H   0  0  0  0  0  0  0  0  0  0  0  0
   -1.0203    2.4476   -0.3760 C   0  0  0  0  0  0  0  0  0  0  0  0
    0.4787    3.2128   -2.2405 C   0  0  0  0  0  0  0  0  0  0  0  0
   -0.1455    2.2298    0.2252 H   0  0  0  0  0  0  0  0  0  0  0  0
   -4.4970    3.0419   -2.8051 C   0  0  0  0  0  0  0  0  0  0  0  0
    0.5767    3.5623   -3.2649 H   0  0  0  0  0  0  0  0  0  0  0  0
   -5.4540    2.8223   -2.3495 H   0  0  0  0  0  0  0  0  0  0  0  0
   -3.6994    0.4053    3.1657 C   0  0  1  0  0  0  0  0  0  0  0  0
   -4.9179   -0.5200    2.9452 C   0  0  1  0  0  0  0  0  0  0  0  0
   -3.5530    1.2655    2.0011 N   0  0  0  0  0  0  0  0  0  0  0  0
   -4.7707   -1.2203    1.6788 N   0  0  0  0  0  0  0  0  0  0  0  0
    3.2895   -3.5702    1.7859 O   0  0  0  0  0  0  0  0  0  0  0  0
   -2.4083   -5.7160   -4.0349 C   0  0  1  0  0  0  0  0  0  0  0  0
   -0.9600   -5.4692   -4.5133 C   0  0  1  0  0  0  0  0  0  0  0  0
   -3.0797   -4.4558   -3.7605 N   0  0  0  0  0  0  0  0  0  0  0  0
   -0.1808   -4.8566   -3.4534 N   0  0  0  0  0  0  0  0  0  0  0  0
   -6.7407    2.3371   -4.5548 C   0  0  2  0  0  0  0  0  0  0  0  0
   -5.4428    3.0177   -5.0812 C   0  0  2  0  0  0  0  0  0  0  0  0
   -6.4322    1.1502   -3.7862 N   0  0  0  0  0  0  0  0  0  0  0  0
   -4.3824    3.1986   -4.0854 N   0  0  0  0  0  0  0  0  0  0  0  0
    3.1873    2.1394   -3.1871 C   0  0  2  0  0  0  0  0  0  0  0  0
    2.8956    3.0914   -1.9975 C   0  0  2  0  0  0  0  0  0  0  0  0
    2.7629    0.7803   -2.9106 N   0  0  0  0  0  0  0  0  0  0  0  0
    1.5264    2.9636   -1.5318 N   0  0  0  0  0  0  0  0  0  0  0  0
   -1.4944    1.1653    1.9539 H   0  0  0  0  0  0  0  0  0  0  0  0
    4.6778    2.2104   -3.5658 C   0  0  0  0  0  0  0  0  0  0  0  0
   -0.2888   -6.8030   -4.8918 C   0  0  0  0  0  0  0  0  0  0  0  0
   -5.0804   -1.4910    4.1207 C   0  0  0  0  0  0  0  0  0  0  0  0
   -5.7989    4.3513   -5.7576 C   0  0  0  0  0  0  0  0  0  0  0  0
   -5.0148    2.3405   -5.8531 H   0  0  0  0  0  0  0  0  0  0  0  0
   -6.8143    4.1175   -6.8924 C   0  0  0  0  0  0  0  0  0  0  0  0
   -4.8849    4.8220   -6.1792 H   0  0  0  0  0  0  0  0  0  0  0  0
   -6.2318    5.0447   -5.0025 H   0  0  0  0  0  0  0  0  0  0  0  0
   -8.0798    3.4138   -6.3745 C   0  0  0  0  0  0  0  0  0  0  0  0
   -6.3455    3.4853   -7.6778 H   0  0  0  0  0  0  0  0  0  0  0  0
   -7.0906    5.0915   -7.3507 H   0  0  0  0  0  0  0  0  0  0  0  0
   -7.7271    2.0756   -5.7019 C   0  0  0  0  0  0  0  0  0  0  0  0
   -8.5877    4.0740   -5.6363 H   0  0  0  0  0  0  0  0  0  0  0  0
   -8.7828    3.2365   -7.2163 H   0  0  0  0  0  0  0  0  0  0  0  0
   -7.2759    1.3831   -6.4456 H   0  0  0  0  0  0  0  0  0  0  0  0
   -8.6555    1.6109   -5.3048 H   0  0  0  0  0  0  0  0  0  0  0  0
   -7.2370    3.0381   -3.8465 H   0  0  0  0  0  0  0  0  0  0  0  0
   -0.9891   -4.8205   -5.4206 H   0  0  0  0  0  0  0  0  0  0  0  0
   -1.0928   -7.5299   -5.9754 C   0  0  0  0  0  0  0  0  0  0  0  0
   -0.2186   -7.4550   -3.9920 H   0  0  0  0  0  0  0  0  0  0  0  0
    0.7423   -6.6137   -5.2619 H   0  0  0  0  0  0  0  0  0  0  0  0
   -2.5226   -7.7882   -5.4864 C   0  0  0  0  0  0  0  0  0  0  0  0
   -0.6012   -8.4960   -6.2201 H   0  0  0  0  0  0  0  0  0  0  0  0
   -1.1188   -6.9089   -6.8979 H   0  0  0  0  0  0  0  0  0  0  0  0
   -3.2056   -6.4644   -5.1195 C   0  0  0  0  0  0  0  0  0  0  0  0
   -2.4968   -8.4522   -4.5944 H   0  0  0  0  0  0  0  0  0  0  0  0
   -3.1025   -8.2995   -6.2844 H   0  0  0  0  0  0  0  0  0  0  0  0
   -4.2356   -6.6692   -4.7559 H   0  0  0  0  0  0  0  0  0  0  0  0
   -3.2791   -5.8295   -6.0310 H   0  0  0  0  0  0  0  0  0  0  0  0
   -2.3696   -6.3557   -3.1215 H   0  0  0  0  0  0  0  0  0  0  0  0
   -5.8293    0.1261    2.9179 H   0  0  0  0  0  0  0  0  0  0  0  0
   -5.2618   -0.6885    5.4217 C   0  0  0  0  0  0  0  0  0  0  0  0
   -4.1813   -2.1412    4.1989 H   0  0  0  0  0  0  0  0  0  0  0  0
   -5.9699   -2.1377    3.9596 H   0  0  0  0  0  0  0  0  0  0  0  0
   -4.0781    0.2686    5.6475 C   0  0  0  0  0  0  0  0  0  0  0  0
   -6.2006   -0.0945    5.3573 H   0  0  0  0  0  0  0  0  0  0  0  0
   -5.3538   -1.3847    6.2824 H   0  0  0  0  0  0  0  0  0  0  0  0
   -3.9058    1.2224    4.4508 C   0  0  0  0  0  0  0  0  0  0  0  0
   -3.1480   -0.3268    5.7795 H   0  0  0  0  0  0  0  0  0  0  0  0
   -4.2465    0.8582    6.5740 H   0  0  0  0  0  0  0  0  0  0  0  0
   -3.0279    1.8808    4.6256 H   0  0  0  0  0  0  0  0  0  0  0  0
   -4.8091    1.8645    4.3506 H   0  0  0  0  0  0  0  0  0  0  0  0
   -2.7853   -0.2232    3.2876 H   0  0  0  0  0  0  0  0  0  0  0  0
    2.6005    2.4742   -4.0709 H   0  0  0  0  0  0  0  0  0  0  0  0
    5.0478    3.6548   -3.9416 C   0  0  0  0  0  0  0  0  0  0  0  0
    4.8812    1.5437   -4.4317 H   0  0  0  0  0  0  0  0  0  0  0  0
    5.3056    1.8739   -2.7114 H   0  0  0  0  0  0  0  0  0  0  0  0
    4.7386    4.6176   -2.7837 C   0  0  0  0  0  0  0  0  0  0  0  0
    4.4651    3.9613   -4.8383 H   0  0  0  0  0  0  0  0  0  0  0  0
    6.1279    3.7095   -4.1966 H   0  0  0  0  0  0  0  0  0  0  0  0
    3.2548    4.5390   -2.3836 C   0  0  0  0  0  0  0  0  0  0  0  0
    4.9895    5.6571   -3.0854 H   0  0  0  0  0  0  0  0  0  0  0  0
    5.3697    4.3488   -1.9082 H   0  0  0  0  0  0  0  0  0  0  0  0
    3.0697    5.2183   -1.5241 H   0  0  0  0  0  0  0  0  0  0  0  0
    2.6254    4.8747   -3.2369 H   0  0  0  0  0  0  0  0  0  0  0  0
    3.5436    2.8028   -1.1415 H   0  0  0  0  0  0  0  0  0  0  0  0
  1  2  1  0  0  0  0
  2 14  1  0  0  0  0
  2 48  2  0  0  0  0
  3  1  1  0  0  0  0
  3  5  1  0  0  0  0
  4  3  2  0  0  0  0
  6  7  2  0  0  0  0
  6  4  1  0  0  0  0
  7  9  1  0  0  0  0
  8  6  1  0  0  0  0
  9 11  1  0  0  0  0
  9  1  2  0  0  0  0
 10 56  2  0  0  0  0
 10  7  1  0  0  0  0
 12  4  1  0  0  0  0
 12 15  1  0  0  0  0
 13 10  1  0  0  0  0
 16 17  1  0  0  0  0
 17 29  1  0  0  0  0
 17 49  2  0  0  0  0
 18 16  1  0  0  0  0
 18 20  1  0  0  0  0
 19 18  2  0  0  0  0
 21 22  2  0  0  0  0
 21 19  1  0  0  0  0
 22 24  1  0  0  0  0
 23 21  1  0  0  0  0
 24 26  1  0  0  0  0
 24 16  2  0  0  0  0
 25 53  2  0  0  0  0
 25 22  1  0  0  0  0
 27 19  1  0  0  0  0
 27 30  1  0  0  0  0
 28 25  1  0  0  0  0
 31 32  1  0  0  0  0
 32 62  1  0  0  0  0
 32 47  2  0  0  0  0
 33 35  1  0  0  0  0
 33 31  2  0  0  0  0
 34 33  1  0  0  0  0
 36 34  2  0  0  0  0
 36 37  1  0  0  0  0
 37 39  2  0  0  0  0
 38 36  1  0  0  0  0
 39 31  1  0  0  0  0
 39 41  1  0  0  0  0
 40 37  1  0  0  0  0
 40 61  2  0  0  0  0
 42 44  1  0  0  0  0
 42 34  1  0  0  0  0
 43 40  1  0  0  0  0
 45105  1  1  0  0  0
 45100  1  0  0  0  0
 46 93  1  6  0  0  0
 46 45  1  0  0  0  0
 46 65  1  0  0  0  0
 47 45  1  0  0  0  0
 48 46  1  0  0  0  0
 50 52  1  0  0  0  0
 50 92  1  1  0  0  0
 51 80  1  6  0  0  0
 51 50  1  0  0  0  0
 51 53  1  0  0  0  0
 52 12  2  0  0  0  0
 54 79  1  1  0  0  0
 54 56  1  0  0  0  0
 55 67  1  6  0  0  0
 55 54  1  0  0  0  0
 55 57  1  0  0  0  0
 57 42  2  0  0  0  0
 58106  1  6  0  0  0
 58 60  1  0  0  0  0
 58 59  1  0  0  0  0
 59 61  1  0  0  0  0
 59118  1  1  0  0  0
 60 27  2  0  0  0  0
 63 58  1  0  0  0  0
 63109  1  0  0  0  0
 64 51  1  0  0  0  0
 64 82  1  0  0  0  0
 65 95  1  0  0  0  0
 65 94  1  0  0  0  0
 66 55  1  0  0  0  0
 66 70  1  0  0  0  0
 68 71  1  0  0  0  0
 68 66  1  0  0  0  0
 69 66  1  0  0  0  0
 71 74  1  0  0  0  0
 71 75  1  0  0  0  0
 72 68  1  0  0  0  0
 73 68  1  0  0  0  0
 74 78  1  0  0  0  0
 74 54  1  0  0  0  0
 76 71  1  0  0  0  0
 77 74  1  0  0  0  0
 81 84  1  0  0  0  0
 81 64  1  0  0  0  0
 83 64  1  0  0  0  0
 84 87  1  0  0  0  0
 84 88  1  0  0  0  0
 85 81  1  0  0  0  0
 86 81  1  0  0  0  0
 87 90  1  0  0  0  0
 87 50  1  0  0  0  0
 89 84  1  0  0  0  0
 91 87  1  0  0  0  0
 94 97  1  0  0  0  0
 94 99  1  0  0  0  0
 96 65  1  0  0  0  0
 97101  1  0  0  0  0
 97102  1  0  0  0  0
 98 94  1  0  0  0  0
100103  1  0  0  0  0
100 97  1  0  0  0  0
104100  1  0  0  0  0
107 63  1  0  0  0  0
107110  1  0  0  0  0
108 63  1  0  0  0  0
110113  1  0  0  0  0
110115  1  0  0  0  0
111107  1  0  0  0  0
112107  1  0  0  0  0
113 59  1  0  0  0  0
113116  1  0  0  0  0
114110  1  0  0  0  0
117113  1  0  0  0  0
M  END
