
 OpenBabel02282015313D

135141  0  0  1  0  0  0  0  0999 V2000
   -2.9321   -2.0766    0.0719 C   0  0  0  0  0  0  0  0  0  0  0  0
   -3.2877   -1.9426    1.5442 C   0  0  1  0  0  0  0  0  0  0  0  0
   -2.2032   -3.2009   -0.3478 C   0  0  0  0  0  0  0  0  0  0  0  0
   -1.8410   -3.3609   -1.6925 C   0  0  0  0  0  0  0  0  0  0  0  0
   -1.9162   -3.9524    0.3789 H   0  0  0  0  0  0  0  0  0  0  0  0
   -2.2081   -2.3801   -2.6272 C   0  0  0  0  0  0  0  0  0  0  0  0
   -2.9422   -1.2547   -2.2281 C   0  0  0  0  0  0  0  0  0  0  0  0
   -1.9302   -2.4931   -3.6685 H   0  0  0  0  0  0  0  0  0  0  0  0
   -3.3051   -1.1056   -0.8777 C   0  0  0  0  0  0  0  0  0  0  0  0
   -3.3151   -0.2434   -3.2412 C   0  0  0  0  0  0  0  0  0  0  0  0
   -3.8675   -0.2335   -0.5719 H   0  0  0  0  0  0  0  0  0  0  0  0
   -1.0786   -4.5614   -2.1017 C   0  0  0  0  0  0  0  0  0  0  0  0
   -2.9406   -0.3739   -4.2493 H   0  0  0  0  0  0  0  0  0  0  0  0
   -0.8245   -5.2874   -1.3387 H   0  0  0  0  0  0  0  0  0  0  0  0
    4.0352   -2.8108   -0.0972 C   0  0  0  0  0  0  0  0  0  0  0  0
    4.1219   -3.4986    1.2527 C   0  0  2  0  0  0  0  0  0  0  0  0
    4.6045   -1.5411   -0.2940 C   0  0  0  0  0  0  0  0  0  0  0  0
    4.5200   -0.9041   -1.5410 C   0  0  0  0  0  0  0  0  0  0  0  0
    5.1177   -1.0497    0.5233 H   0  0  0  0  0  0  0  0  0  0  0  0
    3.8467   -1.5409   -2.5984 C   0  0  0  0  0  0  0  0  0  0  0  0
    3.2731   -2.8077   -2.4149 C   0  0  0  0  0  0  0  0  0  0  0  0
    3.7718   -1.0563   -3.5648 H   0  0  0  0  0  0  0  0  0  0  0  0
    3.3734   -3.4391   -1.1631 C   0  0  0  0  0  0  0  0  0  0  0  0
    2.5610   -3.4578   -3.5370 C   0  0  0  0  0  0  0  0  0  0  0  0
    2.9292   -4.4158   -1.0139 H   0  0  0  0  0  0  0  0  0  0  0  0
    5.1543    0.4220   -1.7188 C   0  0  0  0  0  0  0  0  0  0  0  0
    2.4165   -2.9068   -4.4637 H   0  0  0  0  0  0  0  0  0  0  0  0
    5.6469    0.8678   -0.8628 H   0  0  0  0  0  0  0  0  0  0  0  0
    0.7988    4.1750    0.3160 C   0  0  0  0  0  0  0  0  0  0  0  0
    1.2169    4.5821    1.7144 C   0  0  2  0  0  0  0  0  0  0  0  0
   -0.5585    4.0302   -0.0119 C   0  0  0  0  0  0  0  0  0  0  0  0
   -0.9476    3.6617   -1.3070 C   0  0  0  0  0  0  0  0  0  0  0  0
   -1.3156    4.2092    0.7383 H   0  0  0  0  0  0  0  0  0  0  0  0
    0.0343    3.4237   -2.2832 C   0  0  0  0  0  0  0  0  0  0  0  0
    1.3950    3.5567   -1.9687 C   0  0  0  0  0  0  0  0  0  0  0  0
   -0.2569    3.1355   -3.2866 H   0  0  0  0  0  0  0  0  0  0  0  0
    1.7719    3.9354   -0.6676 C   0  0  0  0  0  0  0  0  0  0  0  0
    2.4115    3.2970   -3.0124 C   0  0  0  0  0  0  0  0  0  0  0  0
    2.8207    4.0420   -0.4185 H   0  0  0  0  0  0  0  0  0  0  0  0
   -2.3892    3.5373   -1.6152 C   0  0  0  0  0  0  0  0  0  0  0  0
    2.0863    2.9567   -3.9930 H   0  0  0  0  0  0  0  0  0  0  0  0
   -3.1080    3.6780   -0.8108 H   0  0  0  0  0  0  0  0  0  0  0  0
   -5.2691   -1.1100    2.4226 C   0  0  0  0  0  0  0  0  0  0  0  0
   -4.9799   -2.4771    3.0165 C   0  0  0  0  0  0  0  0  0  0  0  0
   -4.0000   -0.6824    1.8524 N   0  0  0  0  0  0  0  0  0  0  0  0
   -5.9769   -1.2246    1.5706 H   0  0  0  0  0  0  0  0  0  0  0  0
   -4.1073   -3.0817    2.0130 N   0  0  0  0  0  0  0  0  0  0  0  0
   -4.2337   -2.3674    4.3678 C   0  0  0  0  0  0  0  0  0  0  0  0
   -6.2701   -3.2921    3.2314 C   0  0  0  0  0  0  0  0  0  0  0  0
    4.5386   -2.4278    3.2678 C   0  0  0  0  0  0  0  0  0  0  0  0
    5.4918   -3.5989    3.1029 C   0  0  0  0  0  0  0  0  0  0  0  0
    3.4807   -2.6725    2.2970 N   0  0  0  0  0  0  0  0  0  0  0  0
    5.0519   -1.4925    2.9509 H   0  0  0  0  0  0  0  0  0  0  0  0
    5.5160   -3.7926    1.6543 N   0  0  0  0  0  0  0  0  0  0  0  0
    4.9530   -4.8728    3.7968 C   0  0  0  0  0  0  0  0  0  0  0  0
    6.8892   -3.2826    3.6707 C   0  0  0  0  0  0  0  0  0  0  0  0
    0.2702    4.4464    3.8493 C   0  0  0  0  0  0  0  0  0  0  0  0
    0.7863    5.8487    3.5322 C   0  0  0  0  0  0  0  0  0  0  0  0
    0.7269    3.6231    2.7211 N   0  0  0  0  0  0  0  0  0  0  0  0
   -1.2717    4.4212    3.8823 C   0  0  0  0  0  0  0  0  0  0  0  0
    0.8034    3.9428    5.2046 C   0  0  0  0  0  0  0  0  0  0  0  0
    0.7398    5.9240    2.0812 N   0  0  0  0  0  0  0  0  0  0  0  0
    1.8590    5.9331    3.8257 H   0  0  0  0  0  0  0  0  0  0  0  0
    0.0293   -5.8619   -3.8747 C   0  0  0  0  0  0  0  0  0  0  0  0
    1.3539   -5.3243   -4.4590 C   0  0  0  0  0  0  0  0  0  0  0  0
   -0.7249   -4.7293   -3.3348 N   0  0  0  0  0  0  0  0  0  0  0  0
    0.3402   -6.9649   -2.8277 C   0  0  0  0  0  0  0  0  0  0  0  0
   -0.8049   -6.4904   -5.0025 C   0  0  0  0  0  0  0  0  0  0  0  0
    2.1134   -4.6606   -3.4185 N   0  0  0  0  0  0  0  0  0  0  0  0
    1.1406   -4.6245   -5.2997 H   0  0  0  0  0  0  0  0  0  0  0  0
   -1.0325   -5.7356   -5.7861 H   0  0  0  0  0  0  0  0  0  0  0  0
   -4.5001    1.8285   -3.8316 C   0  0  0  0  0  0  0  0  0  0  0  0
   -4.2081    3.1756   -3.1364 C   0  0  0  0  0  0  0  0  0  0  0  0
   -4.0807    0.7519   -2.9330 N   0  0  0  0  0  0  0  0  0  0  0  0
   -3.7965    1.8027   -5.2141 C   0  0  0  0  0  0  0  0  0  0  0  0
   -6.0164    1.7017   -4.0533 C   0  0  0  0  0  0  0  0  0  0  0  0
   -2.7985    3.2986   -2.8147 N   0  0  0  0  0  0  0  0  0  0  0  0
   -4.8294    3.2557   -2.2143 H   0  0  0  0  0  0  0  0  0  0  0  0
   -6.5583    1.7384   -3.0835 H   0  0  0  0  0  0  0  0  0  0  0  0
    5.7764    2.2927   -3.1937 C   0  0  0  0  0  0  0  0  0  0  0  0
    4.6955    3.2395   -3.7605 C   0  0  0  0  0  0  0  0  0  0  0  0
    5.1528    1.0070   -2.8727 N   0  0  0  0  0  0  0  0  0  0  0  0
    6.4753    2.9723   -1.9860 C   0  0  0  0  0  0  0  0  0  0  0  0
    6.8338    2.0384   -4.2809 C   0  0  0  0  0  0  0  0  0  0  0  0
    3.6636    3.4886   -2.7737 N   0  0  0  0  0  0  0  0  0  0  0  0
    4.2618    2.8027   -4.6896 H   0  0  0  0  0  0  0  0  0  0  0  0
    2.7350   -3.2422    2.7625 H   0  0  0  0  0  0  0  0  0  0  0  0
    3.5868   -4.4752    1.1931 H   0  0  0  0  0  0  0  0  0  0  0  0
    6.1539   -3.0707    1.2425 H   0  0  0  0  0  0  0  0  0  0  0  0
   -0.2568    6.0554    1.7929 H   0  0  0  0  0  0  0  0  0  0  0  0
    1.5114    2.9794    2.9824 H   0  0  0  0  0  0  0  0  0  0  0  0
    2.3323    4.6143    1.7711 H   0  0  0  0  0  0  0  0  0  0  0  0
   -4.7105   -3.4002    1.2153 H   0  0  0  0  0  0  0  0  0  0  0  0
   -3.4658   -0.1669    2.5914 H   0  0  0  0  0  0  0  0  0  0  0  0
   -2.3252   -1.9522    2.1069 H   0  0  0  0  0  0  0  0  0  0  0  0
    4.1660   -2.2794    4.3055 H   0  0  0  0  0  0  0  0  0  0  0  0
    7.3166   -2.3756    3.1918 H   0  0  0  0  0  0  0  0  0  0  0  0
    7.5821   -4.1310    3.4845 H   0  0  0  0  0  0  0  0  0  0  0  0
    6.8314   -3.1015    4.7656 H   0  0  0  0  0  0  0  0  0  0  0  0
   -5.7051   -0.3790    3.1389 H   0  0  0  0  0  0  0  0  0  0  0  0
   -6.8341   -3.4022    2.2805 H   0  0  0  0  0  0  0  0  0  0  0  0
   -6.9299   -2.7867    3.9691 H   0  0  0  0  0  0  0  0  0  0  0  0
   -6.0257   -4.3085    3.6080 H   0  0  0  0  0  0  0  0  0  0  0  0
    0.2330    6.6677    4.0420 H   0  0  0  0  0  0  0  0  0  0  0  0
    0.4468    2.9089    5.4009 H   0  0  0  0  0  0  0  0  0  0  0  0
    0.4566    4.6029    6.0287 H   0  0  0  0  0  0  0  0  0  0  0  0
    1.9145    3.9327    5.2085 H   0  0  0  0  0  0  0  0  0  0  0  0
    1.9557   -6.1657   -4.8665 H   0  0  0  0  0  0  0  0  0  0  0  0
   -0.2594   -7.3343   -5.4778 H   0  0  0  0  0  0  0  0  0  0  0  0
   -1.7687   -6.8733   -4.6027 H   0  0  0  0  0  0  0  0  0  0  0  0
   -4.5006    4.0163   -3.8027 H   0  0  0  0  0  0  0  0  0  0  0  0
   -6.2541    0.7330   -4.5434 H   0  0  0  0  0  0  0  0  0  0  0  0
   -6.3941    2.5250   -4.6977 H   0  0  0  0  0  0  0  0  0  0  0  0
    5.1605    4.2112   -4.0361 H   0  0  0  0  0  0  0  0  0  0  0  0
    3.9451   -5.1609    3.4348 H   0  0  0  0  0  0  0  0  0  0  0  0
    4.8846   -4.7143    4.8946 H   0  0  0  0  0  0  0  0  0  0  0  0
    5.6359   -5.7284    3.6069 H   0  0  0  0  0  0  0  0  0  0  0  0
   -3.2885   -1.7928    4.2868 H   0  0  0  0  0  0  0  0  0  0  0  0
   -3.9789   -3.3806    4.7460 H   0  0  0  0  0  0  0  0  0  0  0  0
   -4.8736   -1.8609    5.1220 H   0  0  0  0  0  0  0  0  0  0  0  0
   -1.7193    4.7755    2.9340 H   0  0  0  0  0  0  0  0  0  0  0  0
   -1.6528    5.0702    4.7000 H   0  0  0  0  0  0  0  0  0  0  0  0
   -1.6338    3.3856    4.0590 H   0  0  0  0  0  0  0  0  0  0  0  0
    0.9025   -7.8002   -3.2983 H   0  0  0  0  0  0  0  0  0  0  0  0
   -0.5991   -7.3844   -2.4070 H   0  0  0  0  0  0  0  0  0  0  0  0
    0.9624   -6.5717   -1.9955 H   0  0  0  0  0  0  0  0  0  0  0  0
    6.3693    1.5704   -5.1758 H   0  0  0  0  0  0  0  0  0  0  0  0
    7.6198    1.3502   -3.9013 H   0  0  0  0  0  0  0  0  0  0  0  0
    7.3192    2.9881   -4.5946 H   0  0  0  0  0  0  0  0  0  0  0  0
    6.9316    3.9382   -2.2931 H   0  0  0  0  0  0  0  0  0  0  0  0
    7.2893    2.3299   -1.5861 H   0  0  0  0  0  0  0  0  0  0  0  0
    5.7521    3.1854   -1.1699 H   0  0  0  0  0  0  0  0  0  0  0  0
   -4.1392    2.6545   -5.8404 H   0  0  0  0  0  0  0  0  0  0  0  0
   -4.0365    0.8706   -5.7691 H   0  0  0  0  0  0  0  0  0  0  0  0
   -2.6939    1.8832   -5.1012 H   0  0  0  0  0  0  0  0  0  0  0  0
  1  2  1  0  0  0  0
  2 45  1  0  0  0  0
  2 47  1  0  0  0  0
  2 95  1  1  0  0  0
  3  1  1  0  0  0  0
  3  5  1  0  0  0  0
  4  3  2  0  0  0  0
  6  7  2  0  0  0  0
  6  4  1  0  0  0  0
  7  9  1  0  0  0  0
  8  6  1  0  0  0  0
  9 11  1  0  0  0  0
  9  1  2  0  0  0  0
 10 74  2  0  0  0  0
 10  7  1  0  0  0  0
 12  4  1  0  0  0  0
 12 14  1  0  0  0  0
 13 10  1  0  0  0  0
 15 16  1  0  0  0  0
 16 88  1  6  0  0  0
 16 54  1  0  0  0  0
 16 52  1  0  0  0  0
 17 15  1  0  0  0  0
 17 19  1  0  0  0  0
 18 17  2  0  0  0  0
 20 21  2  0  0  0  0
 20 18  1  0  0  0  0
 21 23  1  0  0  0  0
 22 20  1  0  0  0  0
 23 25  1  0  0  0  0
 23 15  2  0  0  0  0
 24 69  2  0  0  0  0
 24 21  1  0  0  0  0
 26 18  1  0  0  0  0
 26 28  1  0  0  0  0
 27 24  1  0  0  0  0
 29 30  1  0  0  0  0
 30 92  1  1  0  0  0
 30 62  1  0  0  0  0
 30 59  1  0  0  0  0
 31 29  1  0  0  0  0
 31 33  1  0  0  0  0
 32 31  2  0  0  0  0
 34 35  2  0  0  0  0
 34 32  1  0  0  0  0
 35 37  1  0  0  0  0
 36 34  1  0  0  0  0
 37 39  1  0  0  0  0
 37 29  2  0  0  0  0
 38 85  2  0  0  0  0
 38 35  1  0  0  0  0
 40 32  1  0  0  0  0
 40 42  1  0  0  0  0
 41 38  1  0  0  0  0
 43 44  1  0  0  0  0
 43100  1  0  0  0  0
 44 49  1  0  0  0  0
 44 48  1  0  0  0  0
 45 43  1  0  0  0  0
 45 94  1  0  0  0  0
 46 43  1  0  0  0  0
 47 44  1  0  0  0  0
 48119  1  0  0  0  0
 48120  1  0  0  0  0
 49103  1  0  0  0  0
 49102  1  0  0  0  0
 50 96  1  0  0  0  0
 51 50  1  0  0  0  0
 51 56  1  0  0  0  0
 51 55  1  0  0  0  0
 52 87  1  0  0  0  0
 52 50  1  0  0  0  0
 53 50  1  0  0  0  0
 54 51  1  0  0  0  0
 55116  1  0  0  0  0
 56 99  1  0  0  0  0
 57 60  1  0  0  0  0
 57 61  1  0  0  0  0
 58 63  1  0  0  0  0
 58 57  1  0  0  0  0
 58104  1  0  0  0  0
 59 91  1  0  0  0  0
 59 57  1  0  0  0  0
 60123  1  0  0  0  0
 60122  1  0  0  0  0
 61107  1  0  0  0  0
 61105  1  0  0  0  0
 61106  1  0  0  0  0
 62 58  1  0  0  0  0
 64 66  1  0  0  0  0
 64 67  1  0  0  0  0
 65 64  1  0  0  0  0
 65 69  1  0  0  0  0
 66 12  2  0  0  0  0
 67125  1  0  0  0  0
 67126  1  0  0  0  0
 68110  1  0  0  0  0
 68 64  1  0  0  0  0
 70 65  1  0  0  0  0
 71 68  1  0  0  0  0
 72 73  1  0  0  0  0
 72 74  1  0  0  0  0
 73 77  1  0  0  0  0
 73 78  1  0  0  0  0
 75135  1  0  0  0  0
 75 72  1  0  0  0  0
 76 72  1  0  0  0  0
 76 79  1  0  0  0  0
 77 40  2  0  0  0  0
 80 82  1  0  0  0  0
 80 83  1  0  0  0  0
 81 80  1  0  0  0  0
 81 85  1  0  0  0  0
 82 26  2  0  0  0  0
 83131  1  0  0  0  0
 83132  1  0  0  0  0
 84128  1  0  0  0  0
 84 80  1  0  0  0  0
 86 81  1  0  0  0  0
 89 54  1  0  0  0  0
 90 62  1  0  0  0  0
 93 47  1  0  0  0  0
 97 56  1  0  0  0  0
 98 56  1  0  0  0  0
101 49  1  0  0  0  0
108 65  1  0  0  0  0
109 68  1  0  0  0  0
111 73  1  0  0  0  0
112 76  1  0  0  0  0
113 76  1  0  0  0  0
114 81  1  0  0  0  0
115 55  1  0  0  0  0
117 55  1  0  0  0  0
118 48  1  0  0  0  0
121 60  1  0  0  0  0
124 67  1  0  0  0  0
127 84  1  0  0  0  0
129 84  1  0  0  0  0
130 83  1  0  0  0  0
133 75  1  0  0  0  0
134 75  1  0  0  0  0
M  END
