
 OpenBabel02082013563D

159168  0  0  1  0  0  0  0  0999 V2000
   -3.9067   -1.8323   -0.5927 C   0  0  0  0  0  0  0  0  0  0  0  0
   -4.5845   -1.7261    0.7177 C   0  0  0  0  0  0  0  0  0  0  0  0
   -3.1498   -2.9697   -0.9303 C   0  0  0  0  0  0  0  0  0  0  0  0
   -2.5283   -3.0599   -2.1833 C   0  0  0  0  0  0  0  0  0  0  0  0
   -3.0545   -3.7893   -0.2280 H   0  0  0  0  0  0  0  0  0  0  0  0
   -2.6549   -2.0002   -3.0961 C   0  0  0  0  0  0  0  0  0  0  0  0
   -3.4016   -0.8634   -2.7712 C   0  0  0  0  0  0  0  0  0  0  0  0
   -2.1789   -2.0613   -4.0682 H   0  0  0  0  0  0  0  0  0  0  0  0
   -4.0304   -0.7839   -1.5170 C   0  0  0  0  0  0  0  0  0  0  0  0
   -3.5193    0.2231   -3.7655 C   0  0  0  0  0  0  0  0  0  0  0  0
   -4.6152    0.0909   -1.2586 H   0  0  0  0  0  0  0  0  0  0  0  0
   -1.7705   -4.2761   -2.5448 C   0  0  0  0  0  0  0  0  0  0  0  0
   -2.9710    0.1384   -4.7017 H   0  0  0  0  0  0  0  0  0  0  0  0
   -5.1563   -0.8290    0.9445 H   0  0  0  0  0  0  0  0  0  0  0  0
   -1.6525   -5.0739   -1.8154 H   0  0  0  0  0  0  0  0  0  0  0  0
    3.8008   -2.9197   -0.4717 C   0  0  0  0  0  0  0  0  0  0  0  0
    3.9513   -3.6285    0.8234 C   0  0  0  0  0  0  0  0  0  0  0  0
    4.4155   -1.6734   -0.6834 C   0  0  0  0  0  0  0  0  0  0  0  0
    4.2866   -1.0116   -1.9116 C   0  0  0  0  0  0  0  0  0  0  0  0
    5.0057   -1.2197    0.1042 H   0  0  0  0  0  0  0  0  0  0  0  0
    3.5238   -1.5977   -2.9364 C   0  0  0  0  0  0  0  0  0  0  0  0
    2.8995   -2.8402   -2.7413 C   0  0  0  0  0  0  0  0  0  0  0  0
    3.4178   -1.0913   -3.8886 H   0  0  0  0  0  0  0  0  0  0  0  0
    3.0451   -3.5005   -1.5052 C   0  0  0  0  0  0  0  0  0  0  0  0
    2.0976   -3.4247   -3.8449 C   0  0  0  0  0  0  0  0  0  0  0  0
    2.5703   -4.4611   -1.3444 H   0  0  0  0  0  0  0  0  0  0  0  0
    4.9748    0.2855   -2.1065 C   0  0  0  0  0  0  0  0  0  0  0  0
    1.9596   -2.8447   -4.7547 H   0  0  0  0  0  0  0  0  0  0  0  0
    3.4698   -4.5942    0.9579 H   0  0  0  0  0  0  0  0  0  0  0  0
    5.5280    0.7152   -1.2742 H   0  0  0  0  0  0  0  0  0  0  0  0
    0.7378    4.3590   -0.0669 C   0  0  0  0  0  0  0  0  0  0  0  0
    1.1403    4.7685    1.2982 C   0  0  0  0  0  0  0  0  0  0  0  0
   -0.6168    4.2978   -0.4457 C   0  0  0  0  0  0  0  0  0  0  0  0
   -0.9729    3.9311   -1.7531 C   0  0  0  0  0  0  0  0  0  0  0  0
   -1.3925    4.5470    0.2688 H   0  0  0  0  0  0  0  0  0  0  0  0
    0.0338    3.6151   -2.6806 C   0  0  0  0  0  0  0  0  0  0  0  0
    1.3839    3.6686   -2.3144 C   0  0  0  0  0  0  0  0  0  0  0  0
   -0.2305    3.3343   -3.6933 H   0  0  0  0  0  0  0  0  0  0  0  0
    1.7318    4.0427   -1.0056 C   0  0  0  0  0  0  0  0  0  0  0  0
    2.4146    3.3469   -3.3247 C   0  0  0  0  0  0  0  0  0  0  0  0
    2.7749    4.0941   -0.7163 H   0  0  0  0  0  0  0  0  0  0  0  0
   -2.3994    3.9022   -2.1488 C   0  0  0  0  0  0  0  0  0  0  0  0
    2.0966    3.0403   -4.3189 H   0  0  0  0  0  0  0  0  0  0  0  0
    2.1993    4.8010    1.5449 H   0  0  0  0  0  0  0  0  0  0  0  0
   -3.1624    4.1178   -1.4042 H   0  0  0  0  0  0  0  0  0  0  0  0
   -4.0954   -2.7386    3.9992 C   0  0  1  0  0  0  0  0  0  0  0  0
   -5.1541   -2.6213    2.8751 C   0  0  1  0  0  0  0  0  0  0  0  0
   -3.1490   -1.6222    3.9334 N   0  0  0  0  0  0  0  0  0  0  0  0
   -4.5067   -2.6816    1.5789 N   0  0  0  0  0  0  0  0  0  0  0  0
   -6.1688   -3.7743    2.9775 C   0  0  0  0  0  0  0  0  0  0  0  0
    4.3486   -2.8726    4.1984 C   0  0  1  0  0  0  0  0  0  0  0  0
    4.8666   -3.7741    3.0520 C   0  0  1  0  0  0  0  0  0  0  0  0
    2.9149   -2.6216    4.0405 N   0  0  0  0  0  0  0  0  0  0  0  0
    4.6358   -3.5305    5.5673 C   0  0  0  0  0  0  0  0  0  0  0  0
    4.6609   -3.1176    1.7734 N   0  0  0  0  0  0  0  0  0  0  0  0
   -0.0172    4.6060    4.5740 C   0  0  1  0  0  0  0  0  0  0  0  0
    0.6222    5.5395    3.5161 C   0  0  1  0  0  0  0  0  0  0  0  0
    0.4769    3.2360    4.4176 N   0  0  0  0  0  0  0  0  0  0  0  0
    0.3193    5.1173    5.9912 C   0  0  0  0  0  0  0  0  0  0  0  0
    0.2602    5.1071    2.1780 N   0  0  0  0  0  0  0  0  0  0  0  0
   -0.6167   -5.5935   -4.2003 C   0  0  1  0  0  0  0  0  0  0  0  0
    0.7503   -5.1826   -4.7893 C   0  0  1  0  0  0  0  0  0  0  0  0
   -1.3166   -4.4140   -3.7423 N   0  0  0  0  0  0  0  0  0  0  0  0
    1.5725   -4.5988   -3.7418 N   0  0  0  0  0  0  0  0  0  0  0  0
   -4.4210    2.3158   -4.5121 C   0  0  1  0  0  0  0  0  0  0  0  0
   -4.1054    3.6656   -3.8343 C   0  0  1  0  0  0  0  0  0  0  0  0
   -4.2816    1.2391   -3.5516 N   0  0  0  0  0  0  0  0  0  0  0  0
   -2.7310    3.6731   -3.3739 N   0  0  0  0  0  0  0  0  0  0  0  0
    5.6758    2.1215   -3.4901 C   0  0  1  0  0  0  0  0  0  0  0  0
    4.7019    3.1887   -4.0332 C   0  0  1  0  0  0  0  0  0  0  0  0
    4.9715    0.8743   -3.2538 N   0  0  0  0  0  0  0  0  0  0  0  0
    3.6689    3.4650   -3.0539 N   0  0  0  0  0  0  0  0  0  0  0  0
    5.4619    4.4923   -4.3384 C   0  0  0  0  0  0  0  0  0  0  0  0
    0.1915    2.8644    3.4830 H   0  0  0  0  0  0  0  0  0  0  0  0
    0.0273    2.6239    5.1370 H   0  0  0  0  0  0  0  0  0  0  0  0
   -2.6276   -1.6561    3.0277 H   0  0  0  0  0  0  0  0  0  0  0  0
   -2.4390   -1.7279    4.6942 H   0  0  0  0  0  0  0  0  0  0  0  0
    2.3816   -3.5185    4.1177 H   0  0  0  0  0  0  0  0  0  0  0  0
    2.5890   -1.9744    4.7952 H   0  0  0  0  0  0  0  0  0  0  0  0
   -1.4821   -6.2786   -5.2728 C   0  0  0  0  0  0  0  0  0  0  0  0
   -4.3001    4.8140   -4.8409 C   0  0  0  0  0  0  0  0  0  0  0  0
   -1.1246    4.6112    4.4456 H   0  0  0  0  0  0  0  0  0  0  0  0
   -0.1689    6.5597    6.1794 C   0  0  0  0  0  0  0  0  0  0  0  0
    1.4202    5.0795    6.1502 H   0  0  0  0  0  0  0  0  0  0  0  0
   -0.1631    4.4683    6.7538 H   0  0  0  0  0  0  0  0  0  0  0  0
    0.4692    7.4783    5.1311 C   0  0  0  0  0  0  0  0  0  0  0  0
    0.0976    6.9151    7.1979 H   0  0  0  0  0  0  0  0  0  0  0  0
   -1.2762    6.5929    6.0780 H   0  0  0  0  0  0  0  0  0  0  0  0
    0.1326    6.9851    3.7182 C   0  0  0  0  0  0  0  0  0  0  0  0
    1.5733    7.4879    5.2678 H   0  0  0  0  0  0  0  0  0  0  0  0
    0.0940    8.5157    5.2647 H   0  0  0  0  0  0  0  0  0  0  0  0
    0.6155    7.6532    2.9722 H   0  0  0  0  0  0  0  0  0  0  0  0
   -0.9688    7.0325    3.5655 H   0  0  0  0  0  0  0  0  0  0  0  0
    1.7296    5.5243    3.6529 H   0  0  0  0  0  0  0  0  0  0  0  0
   -5.7035   -1.6584    3.0016 H   0  0  0  0  0  0  0  0  0  0  0  0
   -6.8525   -3.7710    4.3504 C   0  0  0  0  0  0  0  0  0  0  0  0
   -5.6477   -4.7466    2.8295 H   0  0  0  0  0  0  0  0  0  0  0  0
   -6.9391   -3.6693    2.1828 H   0  0  0  0  0  0  0  0  0  0  0  0
   -5.8061   -3.8937    5.4644 C   0  0  0  0  0  0  0  0  0  0  0  0
   -7.5679   -4.6188    4.4141 H   0  0  0  0  0  0  0  0  0  0  0  0
   -7.4229   -2.8245    4.4786 H   0  0  0  0  0  0  0  0  0  0  0  0
   -4.7943   -2.7436    5.3744 C   0  0  0  0  0  0  0  0  0  0  0  0
   -5.2728   -4.8651    5.3677 H   0  0  0  0  0  0  0  0  0  0  0  0
   -6.3107   -3.8710    6.4540 H   0  0  0  0  0  0  0  0  0  0  0  0
   -4.0400   -2.8587    6.1826 H   0  0  0  0  0  0  0  0  0  0  0  0
   -5.3230   -1.7764    5.5278 H   0  0  0  0  0  0  0  0  0  0  0  0
   -3.5377   -3.6964    3.8778 H   0  0  0  0  0  0  0  0  0  0  0  0
    4.8835   -1.8961    4.1549 H   0  0  0  0  0  0  0  0  0  0  0  0
    6.3720   -4.0422    3.2367 C   0  0  0  0  0  0  0  0  0  0  0  0
    4.3288   -4.7506    3.0892 H   0  0  0  0  0  0  0  0  0  0  0  0
    6.6452   -4.6974    4.5975 C   0  0  0  0  0  0  0  0  0  0  0  0
    6.9337   -3.0831    3.1745 H   0  0  0  0  0  0  0  0  0  0  0  0
    6.7367   -4.7103    2.4268 H   0  0  0  0  0  0  0  0  0  0  0  0
    6.1374   -3.7993    5.7322 C   0  0  0  0  0  0  0  0  0  0  0  0
    7.7366   -4.8679    4.7178 H   0  0  0  0  0  0  0  0  0  0  0  0
    6.1318   -5.6830    4.6450 H   0  0  0  0  0  0  0  0  0  0  0  0
    4.2922   -2.8654    6.3890 H   0  0  0  0  0  0  0  0  0  0  0  0
    4.0829   -4.4930    5.6452 H   0  0  0  0  0  0  0  0  0  0  0  0
    6.3245   -4.2917    6.7108 H   0  0  0  0  0  0  0  0  0  0  0  0
    6.6909   -2.8344    5.7180 H   0  0  0  0  0  0  0  0  0  0  0  0
    4.2570    2.8159   -4.9864 H   0  0  0  0  0  0  0  0  0  0  0  0
    6.5846    4.2357   -5.3521 C   0  0  0  0  0  0  0  0  0  0  0  0
    5.8990    4.9014   -3.4002 H   0  0  0  0  0  0  0  0  0  0  0  0
    4.7596    5.2482   -4.7524 H   0  0  0  0  0  0  0  0  0  0  0  0
    7.5542    3.1771   -4.8127 C   0  0  0  0  0  0  0  0  0  0  0  0
    7.1339    5.1810   -5.5499 H   0  0  0  0  0  0  0  0  0  0  0  0
    6.1449    3.8820   -6.3109 H   0  0  0  0  0  0  0  0  0  0  0  0
    6.8032    1.8734   -4.5090 C   0  0  0  0  0  0  0  0  0  0  0  0
    8.0344    3.5542   -3.8827 H   0  0  0  0  0  0  0  0  0  0  0  0
    8.3516    2.9841   -5.5619 H   0  0  0  0  0  0  0  0  0  0  0  0
    7.5176    1.1244   -4.1033 H   0  0  0  0  0  0  0  0  0  0  0  0
    6.3737    1.4684   -5.4525 H   0  0  0  0  0  0  0  0  0  0  0  0
    6.1370    2.5025   -2.5479 H   0  0  0  0  0  0  0  0  0  0  0  0
   -4.8114    3.8191   -2.9840 H   0  0  0  0  0  0  0  0  0  0  0  0
   -5.7316    4.8117   -5.3944 C   0  0  0  0  0  0  0  0  0  0  0  0
   -3.5817    4.6993   -5.6834 H   0  0  0  0  0  0  0  0  0  0  0  0
   -4.0983    5.7873   -4.3435 H   0  0  0  0  0  0  0  0  0  0  0  0
   -6.0399    3.4678   -6.0664 C   0  0  0  0  0  0  0  0  0  0  0  0
   -5.8480    5.6339   -6.1325 H   0  0  0  0  0  0  0  0  0  0  0  0
   -6.4510    4.9841   -4.5638 H   0  0  0  0  0  0  0  0  0  0  0  0
   -5.8567    2.3197   -5.0648 C   0  0  0  0  0  0  0  0  0  0  0  0
   -5.3545    3.3195   -6.9305 H   0  0  0  0  0  0  0  0  0  0  0  0
   -7.0831    3.4694   -6.4481 H   0  0  0  0  0  0  0  0  0  0  0  0
   -6.0652    1.3531   -5.5732 H   0  0  0  0  0  0  0  0  0  0  0  0
   -6.5821    2.4377   -4.2294 H   0  0  0  0  0  0  0  0  0  0  0  0
   -3.7227    2.1736   -5.3716 H   0  0  0  0  0  0  0  0  0  0  0  0
   -0.4534   -6.3169   -3.3666 H   0  0  0  0  0  0  0  0  0  0  0  0
   -0.7614   -7.4974   -5.8571 C   0  0  0  0  0  0  0  0  0  0  0  0
   -1.7035   -5.5588   -6.0924 H   0  0  0  0  0  0  0  0  0  0  0  0
   -2.4480   -6.5991   -4.8244 H   0  0  0  0  0  0  0  0  0  0  0  0
    0.5808   -7.0708   -6.4630 C   0  0  0  0  0  0  0  0  0  0  0  0
   -1.3975   -7.9640   -6.6399 H   0  0  0  0  0  0  0  0  0  0  0  0
   -0.5877   -8.2492   -5.0558 H   0  0  0  0  0  0  0  0  0  0  0  0
    1.4615   -6.4090   -5.3906 C   0  0  0  0  0  0  0  0  0  0  0  0
    0.3986   -6.3531   -7.2943 H   0  0  0  0  0  0  0  0  0  0  0  0
    1.0994   -7.9593   -6.8815 H   0  0  0  0  0  0  0  0  0  0  0  0
    2.4234   -6.0946   -5.8508 H   0  0  0  0  0  0  0  0  0  0  0  0
    1.6812   -7.1490   -4.5901 H   0  0  0  0  0  0  0  0  0  0  0  0
    0.5783   -4.4514   -5.6151 H   0  0  0  0  0  0  0  0  0  0  0  0
  1  2  1  0  0  0  0
  2 14  1  0  0  0  0
  2 49  2  0  0  0  0
  3  1  1  0  0  0  0
  3  5  1  0  0  0  0
  4  3  2  0  0  0  0
  6  7  2  0  0  0  0
  6  4  1  0  0  0  0
  7  9  1  0  0  0  0
  8  6  1  0  0  0  0
  9 11  1  0  0  0  0
  9  1  2  0  0  0  0
 10 67  2  0  0  0  0
 10  7  1  0  0  0  0
 12  4  1  0  0  0  0
 12 15  1  0  0  0  0
 13 10  1  0  0  0  0
 16 17  1  0  0  0  0
 17 29  1  0  0  0  0
 17 55  2  0  0  0  0
 18 16  1  0  0  0  0
 18 20  1  0  0  0  0
 19 18  2  0  0  0  0
 21 22  2  0  0  0  0
 21 19  1  0  0  0  0
 22 24  1  0  0  0  0
 23 21  1  0  0  0  0
 24 26  1  0  0  0  0
 24 16  2  0  0  0  0
 25 64  2  0  0  0  0
 25 22  1  0  0  0  0
 27 19  1  0  0  0  0
 27 30  1  0  0  0  0
 28 25  1  0  0  0  0
 31 32  1  0  0  0  0
 32 44  1  0  0  0  0
 32 60  2  0  0  0  0
 33 31  1  0  0  0  0
 33 35  1  0  0  0  0
 34 33  2  0  0  0  0
 36 37  2  0  0  0  0
 36 34  1  0  0  0  0
 37 39  1  0  0  0  0
 38 36  1  0  0  0  0
 39 41  1  0  0  0  0
 39 31  2  0  0  0  0
 40 72  2  0  0  0  0
 40 37  1  0  0  0  0
 42 34  1  0  0  0  0
 42 45  1  0  0  0  0
 43 40  1  0  0  0  0
 46107  1  6  0  0  0
 46102  1  0  0  0  0
 47 50  1  0  0  0  0
 47 95  1  1  0  0  0
 47 46  1  0  0  0  0
 48 46  1  0  0  0  0
 48 77  1  0  0  0  0
 49 47  1  0  0  0  0
 50 96  1  0  0  0  0
 51108  1  6  0  0  0
 51 54  1  0  0  0  0
 52110  1  1  0  0  0
 52109  1  0  0  0  0
 52 51  1  0  0  0  0
 53 78  1  0  0  0  0
 53 51  1  0  0  0  0
 53 79  1  0  0  0  0
 54118  1  0  0  0  0
 54114  1  0  0  0  0
 54117  1  0  0  0  0
 55 52  1  0  0  0  0
 56 82  1  6  0  0  0
 56 59  1  0  0  0  0
 57 94  1  1  0  0  0
 57 89  1  0  0  0  0
 57 56  1  0  0  0  0
 58 56  1  0  0  0  0
 58 75  1  0  0  0  0
 59 84  1  0  0  0  0
 59 83  1  0  0  0  0
 59 85  1  0  0  0  0
 60 57  1  0  0  0  0
 61 63  1  0  0  0  0
 61147  1  1  0  0  0
 62159  1  6  0  0  0
 62 61  1  0  0  0  0
 62 64  1  0  0  0  0
 63 12  2  0  0  0  0
 65146  1  6  0  0  0
 65 66  1  0  0  0  0
 65 67  1  0  0  0  0
 66 68  1  0  0  0  0
 66134  1  1  0  0  0
 68 42  2  0  0  0  0
 69 71  1  0  0  0  0
 69133  1  1  0  0  0
 70121  1  6  0  0  0
 70 69  1  0  0  0  0
 70 72  1  0  0  0  0
 71 27  2  0  0  0  0
 73 70  1  0  0  0  0
 73123  1  0  0  0  0
 74 58  1  0  0  0  0
 76 48  1  0  0  0  0
 80150  1  0  0  0  0
 80 61  1  0  0  0  0
 81137  1  0  0  0  0
 81 66  1  0  0  0  0
 83 87  1  0  0  0  0
 86 91  1  0  0  0  0
 86 90  1  0  0  0  0
 86 83  1  0  0  0  0
 88 83  1  0  0  0  0
 89 86  1  0  0  0  0
 92 89  1  0  0  0  0
 93 89  1  0  0  0  0
 96100  1  0  0  0  0
 96101  1  0  0  0  0
 96 99  1  0  0  0  0
 97 50  1  0  0  0  0
 98 50  1  0  0  0  0
 99104  1  0  0  0  0
102 99  1  0  0  0  0
102106  1  0  0  0  0
102105  1  0  0  0  0
103 99  1  0  0  0  0
109111  1  0  0  0  0
111116  1  0  0  0  0
111115  1  0  0  0  0
111114  1  0  0  0  0
112109  1  0  0  0  0
113109  1  0  0  0  0
114119  1  0  0  0  0
120114  1  0  0  0  0
122125  1  0  0  0  0
122 73  1  0  0  0  0
124 73  1  0  0  0  0
125128  1  0  0  0  0
125129  1  0  0  0  0
126122  1  0  0  0  0
127122  1  0  0  0  0
128131  1  0  0  0  0
128 69  1  0  0  0  0
130125  1  0  0  0  0
132128  1  0  0  0  0
135 81  1  0  0  0  0
135140  1  0  0  0  0
136 81  1  0  0  0  0
138135  1  0  0  0  0
138141  1  0  0  0  0
139135  1  0  0  0  0
141 65  1  0  0  0  0
141145  1  0  0  0  0
142138  1  0  0  0  0
143138  1  0  0  0  0
144141  1  0  0  0  0
148 80  1  0  0  0  0
148153  1  0  0  0  0
149 80  1  0  0  0  0
151148  1  0  0  0  0
151154  1  0  0  0  0
152148  1  0  0  0  0
154 62  1  0  0  0  0
154158  1  0  0  0  0
155151  1  0  0  0  0
156151  1  0  0  0  0
157154  1  0  0  0  0
M  END
