
 OpenBabel02282015333D

 99105  0  0  0  0  0  0  0  0999 V2000
   -2.8020   -2.1202    0.1238 C   0  0  0  0  0  0  0  0  0  0  0  0
   -3.0979   -2.0515    1.6121 C   0  0  0  0  0  0  0  0  0  0  0  0
   -2.1002   -3.2313   -0.3709 C   0  0  0  0  0  0  0  0  0  0  0  0
   -1.7927   -3.3430   -1.7341 C   0  0  0  0  0  0  0  0  0  0  0  0
   -1.7925   -4.0134    0.3139 H   0  0  0  0  0  0  0  0  0  0  0  0
   -2.1872   -2.3220   -2.6131 C   0  0  0  0  0  0  0  0  0  0  0  0
   -2.8943   -1.2067   -2.1412 C   0  0  0  0  0  0  0  0  0  0  0  0
   -1.9520   -2.3960   -3.6681 H   0  0  0  0  0  0  0  0  0  0  0  0
   -3.2017   -1.1109   -0.7727 C   0  0  0  0  0  0  0  0  0  0  0  0
   -3.2984   -0.1545   -3.0989 C   0  0  0  0  0  0  0  0  0  0  0  0
   -3.7444   -0.2472   -0.4123 H   0  0  0  0  0  0  0  0  0  0  0  0
   -1.0612   -4.5358   -2.2131 C   0  0  0  0  0  0  0  0  0  0  0  0
   -2.9688   -0.2371   -4.1325 H   0  0  0  0  0  0  0  0  0  0  0  0
   -0.7797   -5.2981   -1.4900 H   0  0  0  0  0  0  0  0  0  0  0  0
    3.9944   -2.8937   -0.1324 C   0  0  0  0  0  0  0  0  0  0  0  0
    4.0531   -3.5719    1.2213 C   0  0  0  0  0  0  0  0  0  0  0  0
    4.5733   -1.6283   -0.3323 C   0  0  0  0  0  0  0  0  0  0  0  0
    4.5079   -0.9989   -1.5845 C   0  0  0  0  0  0  0  0  0  0  0  0
    5.0759   -1.1322    0.4892 H   0  0  0  0  0  0  0  0  0  0  0  0
    3.8468   -1.6430   -2.6446 C   0  0  0  0  0  0  0  0  0  0  0  0
    3.2646   -2.9048   -2.4619 C   0  0  0  0  0  0  0  0  0  0  0  0
    3.7854   -1.1655   -3.6155 H   0  0  0  0  0  0  0  0  0  0  0  0
    3.3440   -3.5251   -1.2038 C   0  0  0  0  0  0  0  0  0  0  0  0
    2.5642   -3.5525   -3.5921 C   0  0  0  0  0  0  0  0  0  0  0  0
    2.8916   -4.4978   -1.0535 H   0  0  0  0  0  0  0  0  0  0  0  0
    5.1430    0.3258   -1.7652 C   0  0  0  0  0  0  0  0  0  0  0  0
    2.4516   -3.0049   -4.5252 H   0  0  0  0  0  0  0  0  0  0  0  0
    5.6384    0.7900   -0.9153 H   0  0  0  0  0  0  0  0  0  0  0  0
    0.8996    4.3094    0.3730 C   0  0  0  0  0  0  0  0  0  0  0  0
    1.3217    4.7635    1.7561 C   0  0  0  0  0  0  0  0  0  0  0  0
   -0.4604    4.1758    0.0503 C   0  0  0  0  0  0  0  0  0  0  0  0
   -0.8591    3.7694   -1.2304 C   0  0  0  0  0  0  0  0  0  0  0  0
   -1.2124    4.3952    0.7986 H   0  0  0  0  0  0  0  0  0  0  0  0
    0.1184    3.4855   -2.1984 C   0  0  0  0  0  0  0  0  0  0  0  0
    1.4823    3.6060   -1.8920 C   0  0  0  0  0  0  0  0  0  0  0  0
   -0.1794    3.1714   -3.1918 H   0  0  0  0  0  0  0  0  0  0  0  0
    1.8658    4.0188   -0.6035 C   0  0  0  0  0  0  0  0  0  0  0  0
    2.4886    3.3050   -2.9345 C   0  0  0  0  0  0  0  0  0  0  0  0
    2.9164    4.1188   -0.3592 H   0  0  0  0  0  0  0  0  0  0  0  0
   -2.3033    3.6572   -1.5283 C   0  0  0  0  0  0  0  0  0  0  0  0
    2.1484    2.9678   -3.9111 H   0  0  0  0  0  0  0  0  0  0  0  0
   -3.0134    3.8446   -0.7257 H   0  0  0  0  0  0  0  0  0  0  0  0
   -5.0293   -1.2671    2.6234 C   0  0  0  0  0  0  0  0  0  0  0  0
   -4.6878   -2.6393    3.1356 C   0  0  0  0  0  0  0  0  0  0  0  0
   -3.7974   -0.8072    2.0016 N   0  0  0  0  0  0  0  0  0  0  0  0
   -5.7985   -1.3635    1.8250 H   0  0  0  0  0  0  0  0  0  0  0  0
   -3.9040   -3.2056    2.0540 N   0  0  0  0  0  0  0  0  0  0  0  0
   -4.0382   -2.5501    4.0361 H   0  0  0  0  0  0  0  0  0  0  0  0
    4.4352   -2.5718    3.2748 C   0  0  0  0  0  0  0  0  0  0  0  0
    5.3307   -3.7675    3.0877 C   0  0  0  0  0  0  0  0  0  0  0  0
    3.4104   -2.7319    2.2529 N   0  0  0  0  0  0  0  0  0  0  0  0
    5.0145   -1.6530    3.0338 H   0  0  0  0  0  0  0  0  0  0  0  0
    5.4339   -3.8741    1.6437 N   0  0  0  0  0  0  0  0  0  0  0  0
    4.8191   -4.6783    3.4758 H   0  0  0  0  0  0  0  0  0  0  0  0
    0.0222    4.7146    3.6724 C   0  0  0  0  0  0  0  0  0  0  0  0
    0.6338    6.0770    3.4837 C   0  0  0  0  0  0  0  0  0  0  0  0
    0.7944    3.8499    2.7904 N   0  0  0  0  0  0  0  0  0  0  0  0
   -1.0245    4.7381    3.2961 H   0  0  0  0  0  0  0  0  0  0  0  0
    0.8668    6.1361    2.0529 N   0  0  0  0  0  0  0  0  0  0  0  0
    1.6167    6.1192    4.0048 H   0  0  0  0  0  0  0  0  0  0  0  0
   -0.0294   -5.8293   -3.9564 C   0  0  0  0  0  0  0  0  0  0  0  0
    1.3207   -5.3944   -4.5177 C   0  0  0  0  0  0  0  0  0  0  0  0
   -0.7504   -4.6761   -3.4567 N   0  0  0  0  0  0  0  0  0  0  0  0
    0.1454   -6.5770   -3.1495 H   0  0  0  0  0  0  0  0  0  0  0  0
    2.0774   -4.7391   -3.4726 N   0  0  0  0  0  0  0  0  0  0  0  0
    1.1635   -4.7209   -5.3905 H   0  0  0  0  0  0  0  0  0  0  0  0
   -4.4356    1.8903   -3.6414 C   0  0  0  0  0  0  0  0  0  0  0  0
   -4.1355    3.2523   -3.0245 C   0  0  0  0  0  0  0  0  0  0  0  0
   -4.0442    0.8317   -2.7343 N   0  0  0  0  0  0  0  0  0  0  0  0
   -3.9095    1.8011   -4.6192 H   0  0  0  0  0  0  0  0  0  0  0  0
   -2.7258    3.3684   -2.7118 N   0  0  0  0  0  0  0  0  0  0  0  0
   -4.7640    3.3851   -2.1147 H   0  0  0  0  0  0  0  0  0  0  0  0
    5.7800    2.1881   -3.1520 C   0  0  0  0  0  0  0  0  0  0  0  0
    4.7712    3.1970   -3.6919 C   0  0  0  0  0  0  0  0  0  0  0  0
    5.1425    0.9101   -2.9141 N   0  0  0  0  0  0  0  0  0  0  0  0
    6.2503    2.5926   -2.2271 H   0  0  0  0  0  0  0  0  0  0  0  0
    3.7468    3.4606   -2.7040 N   0  0  0  0  0  0  0  0  0  0  0  0
    4.3378    2.8189   -4.6457 H   0  0  0  0  0  0  0  0  0  0  0  0
    2.6173   -3.2756    2.6697 H   0  0  0  0  0  0  0  0  0  0  0  0
    3.5128   -4.5471    1.1691 H   0  0  0  0  0  0  0  0  0  0  0  0
    6.0872   -3.1175    1.3295 H   0  0  0  0  0  0  0  0  0  0  0  0
   -0.0605    6.3225    1.6022 H   0  0  0  0  0  0  0  0  0  0  0  0
    1.6039    3.4700    3.3364 H   0  0  0  0  0  0  0  0  0  0  0  0
    2.4360    4.7709    1.8192 H   0  0  0  0  0  0  0  0  0  0  0  0
   -4.5809   -3.4676    1.2963 H   0  0  0  0  0  0  0  0  0  0  0  0
   -3.2259   -0.3273    2.7374 H   0  0  0  0  0  0  0  0  0  0  0  0
   -2.1188   -2.0897    2.1454 H   0  0  0  0  0  0  0  0  0  0  0  0
    4.0245   -2.4786    4.3034 H   0  0  0  0  0  0  0  0  0  0  0  0
   -5.4099   -0.5810    3.4112 H   0  0  0  0  0  0  0  0  0  0  0  0
   -0.0119    6.9022    3.8560 H   0  0  0  0  0  0  0  0  0  0  0  0
    1.8752   -6.2923   -4.8640 H   0  0  0  0  0  0  0  0  0  0  0  0
   -4.4137    4.0447   -3.7514 H   0  0  0  0  0  0  0  0  0  0  0  0
    5.3030    4.1476   -3.9089 H   0  0  0  0  0  0  0  0  0  0  0  0
   -5.5831   -3.2469    3.3909 H   0  0  0  0  0  0  0  0  0  0  0  0
    0.0154    4.3752    4.7313 H   0  0  0  0  0  0  0  0  0  0  0  0
   -0.6282   -6.3195   -4.7529 H   0  0  0  0  0  0  0  0  0  0  0  0
   -5.5284    1.8219   -3.8293 H   0  0  0  0  0  0  0  0  0  0  0  0
    6.5797    2.0453   -3.9092 H   0  0  0  0  0  0  0  0  0  0  0  0
    6.3158   -3.6625    3.5916 H   0  0  0  0  0  0  0  0  0  0  0  0
  1  2  1  0  0  0  0
  2 45  1  0  0  0  0
  2 47  1  0  0  0  0
  2 87  1  0  0  0  0
  3  1  1  0  0  0  0
  3  5  1  0  0  0  0
  4  3  2  0  0  0  0
  6  7  2  0  0  0  0
  6  4  1  0  0  0  0
  7  9  1  0  0  0  0
  8  6  1  0  0  0  0
  9 11  1  0  0  0  0
  9  1  2  0  0  0  0
 10 69  2  0  0  0  0
 10  7  1  0  0  0  0
 12  4  1  0  0  0  0
 12 14  1  0  0  0  0
 13 10  1  0  0  0  0
 15 16  1  0  0  0  0
 16 53  1  0  0  0  0
 16 51  1  0  0  0  0
 17 15  1  0  0  0  0
 17 19  1  0  0  0  0
 18 17  2  0  0  0  0
 20 21  2  0  0  0  0
 20 18  1  0  0  0  0
 21 23  1  0  0  0  0
 22 20  1  0  0  0  0
 23 25  1  0  0  0  0
 23 15  2  0  0  0  0
 24 65  2  0  0  0  0
 24 21  1  0  0  0  0
 26 18  1  0  0  0  0
 26 28  1  0  0  0  0
 27 24  1  0  0  0  0
 29 30  1  0  0  0  0
 30 84  1  0  0  0  0
 30 59  1  0  0  0  0
 30 57  1  0  0  0  0
 31 29  1  0  0  0  0
 31 33  1  0  0  0  0
 32 31  2  0  0  0  0
 34 35  2  0  0  0  0
 34 32  1  0  0  0  0
 35 37  1  0  0  0  0
 36 34  1  0  0  0  0
 37 39  1  0  0  0  0
 37 29  2  0  0  0  0
 38 77  2  0  0  0  0
 38 35  1  0  0  0  0
 40 32  1  0  0  0  0
 40 42  1  0  0  0  0
 41 38  1  0  0  0  0
 43 44  1  0  0  0  0
 43 89  1  0  0  0  0
 44 94  1  0  0  0  0
 44 48  1  0  0  0  0
 45 43  1  0  0  0  0
 45 86  1  0  0  0  0
 46 43  1  0  0  0  0
 47 44  1  0  0  0  0
 49 88  1  0  0  0  0
 50 49  1  0  0  0  0
 50 54  1  0  0  0  0
 50 99  1  0  0  0  0
 51 79  1  0  0  0  0
 51 49  1  0  0  0  0
 52 49  1  0  0  0  0
 53 50  1  0  0  0  0
 55 95  1  0  0  0  0
 56 55  1  0  0  0  0
 56 90  1  0  0  0  0
 56 60  1  0  0  0  0
 57 83  1  0  0  0  0
 57 55  1  0  0  0  0
 58 55  1  0  0  0  0
 59 56  1  0  0  0  0
 61 63  1  0  0  0  0
 61 64  1  0  0  0  0
 62 61  1  0  0  0  0
 62 65  1  0  0  0  0
 63 12  2  0  0  0  0
 66 62  1  0  0  0  0
 67 68  1  0  0  0  0
 67 69  1  0  0  0  0
 68 71  1  0  0  0  0
 68 72  1  0  0  0  0
 70 67  1  0  0  0  0
 71 40  2  0  0  0  0
 73 75  1  0  0  0  0
 73 76  1  0  0  0  0
 74 73  1  0  0  0  0
 74 77  1  0  0  0  0
 75 26  2  0  0  0  0
 78 74  1  0  0  0  0
 80 16  1  0  0  0  0
 81 53  1  0  0  0  0
 82 59  1  0  0  0  0
 85 47  1  0  0  0  0
 91 62  1  0  0  0  0
 92 68  1  0  0  0  0
 93 74  1  0  0  0  0
 96 61  1  0  0  0  0
 97 67  1  0  0  0  0
 98 73  1  0  0  0  0
M  END
