
     RDKit          3D

  0  0  0  0  0  0  0  0  0  0999 V3000
M  V30 BEGIN CTAB
M  V30 COUNTS 117 121 0 0 0
M  V30 BEGIN ATOM
M  V30 1 C -4.5437 -1.1002 -0.6981 0
M  V30 2 C -5.5019 -0.6158 0.2829 0
M  V30 3 C -3.7612 -2.2253 -0.4569 0
M  V30 4 C -2.7844 -2.6180 -1.3689 0
M  V30 5 H -3.9139 -2.8025 0.4402 0
M  V30 6 C -2.5614 -1.8461 -2.5081 0
M  V30 7 C -3.3413 -0.7223 -2.7662 0
M  V30 8 H -1.7792 -2.1279 -3.2006 0
M  V30 9 C -4.3466 -0.3738 -1.8685 0
M  V30 10 C -3.0665 0.1280 -3.9210 0
M  V30 11 H -4.9480 0.4926 -2.0938 0
M  V30 12 C -2.0129 -3.8318 -1.1347 0
M  V30 13 H -2.0948 -0.0488 -4.3977 0
M  V30 14 H -6.1188 0.2351 -0.0442 0
M  V30 15 H -1.2934 -4.1139 -1.9198 0
M  V30 16 C 3.8472 -3.3572 -1.9455 0
M  V30 17 C 4.5973 -4.2457 -2.8208 0
M  V30 18 C 4.2042 -2.0146 -1.8185 0
M  V30 19 C 3.4848 -1.1643 -0.9871 0
M  V30 20 H 5.0501 -1.6521 -2.3830 0
M  V30 21 C 2.3907 -1.6637 -0.2774 0
M  V30 22 C 2.0369 -3.0036 -0.3763 0
M  V30 23 H 1.8385 -0.9877 0.3576 0
M  V30 24 C 2.7701 -3.8440 -1.2150 0
M  V30 25 C 0.9382 -3.5452 0.4197 0
M  V30 26 H 2.4809 -4.8822 -1.2740 0
M  V30 27 C 3.8860 0.2285 -0.8602 0
M  V30 28 H 0.3747 -2.8106 1.0077 0
M  V30 29 H 4.2526 -5.2911 -2.8518 0
M  V30 30 H 4.7985 0.5118 -1.4080 0
M  V30 31 C -2.7586 1.8836 1.1062 0
M  V30 32 C -3.4435 1.2256 2.2136 0
M  V30 33 C -3.4792 2.3538 0.0112 0
M  V30 34 C -2.8250 2.8481 -1.1130 0
M  V30 35 H -4.5553 2.2874 0.0458 0
M  V30 36 C -1.4355 2.9329 -1.1107 0
M  V30 37 C -0.7013 2.4994 -0.0115 0
M  V30 38 H -0.9206 3.3170 -1.9756 0
M  V30 39 C -1.3685 1.9526 1.0827 0
M  V30 40 C 0.7569 2.5654 -0.0229 0
M  V30 41 H -0.7996 1.5793 1.9240 0
M  V30 42 C -3.5915 3.1343 -2.3153 0
M  V30 43 H 1.2592 2.0374 0.7936 0
M  V30 44 H -4.6852 3.0611 -2.2103 0
M  V30 45 C -5.4552 0.5010 3.2763 0
M  V30 46 C -6.3895 -0.3932 2.4028 0
M  V30 47 N -4.6980 1.2611 2.3193 0
M  V30 48 N -5.5816 -1.0855 1.4518 0
M  V30 49 C 7.7969 -4.7856 -3.8657 0
M  V30 50 C 6.3106 -4.7347 -4.3297 0
M  V30 51 N 8.3890 -3.4615 -3.7920 0
M  V30 52 N 5.5758 -3.8373 -3.5048 0
M  V30 53 C -1.4543 -5.7135 0.1379 0
M  V30 54 C -0.3157 -5.4441 1.1624 0
M  V30 55 N -2.2002 -4.5258 -0.0982 0
M  V30 56 N 0.7210 -4.7864 0.4189 0
M  V30 57 C -3.6440 1.9828 -5.3145 0
M  V30 58 C -3.8502 3.3556 -4.6025 0
M  V30 59 N -3.8898 1.0081 -4.2859 0
M  V30 60 N -3.0413 3.3596 -3.4285 0
M  V30 61 C 3.6269 2.4166 -0.0992 0
M  V30 62 C 2.7764 3.2992 -1.0630 0
M  V30 63 N 3.2350 1.0500 -0.1558 0
M  V30 64 N 1.3567 3.1871 -0.9386 0
M  V30 65 H 8.3728 -3.0178 -4.7043 0
M  V30 66 H 7.8417 -2.8848 -3.1619 0
M  V30 67 H -2.7820 0.6789 2.8966 0
M  V30 68 C 8.6002 -5.6192 -4.8646 0
M  V30 69 C 7.8750 -5.4149 -2.4733 0
M  V30 70 C -4.6526 -0.3917 4.2268 0
M  V30 71 C -6.3109 1.4920 4.0719 0
M  V30 72 H -7.1369 0.2559 1.9213 0
M  V30 73 H -6.8866 -1.1220 3.0454 0
M  V30 74 H 4.6842 2.5658 -0.3711 0
M  V30 75 H 3.4694 2.7666 0.9256 0
M  V30 76 C 3.1016 2.9418 -2.5191 0
M  V30 77 C 3.1289 4.7715 -0.8077 0
M  V30 78 H -0.9965 -6.1229 -0.7766 0
M  V30 79 H -2.1388 -6.4477 0.5698 0
M  V30 80 H -4.9213 3.4735 -4.3749 0
M  V30 81 H -3.5206 4.1551 -5.2687 0
M  V30 82 C -4.7291 1.8028 -6.3814 0
M  V30 83 C -2.2547 1.9544 -5.9573 0
M  V30 84 C 0.2769 -6.7871 1.6056 0
M  V30 85 C -0.8652 -4.6843 2.3733 0
M  V30 86 H -4.1130 -1.1481 3.6621 0
M  V30 87 H -5.3329 -0.8900 4.9124 0
M  V30 88 H -3.9504 0.1996 4.8120 0
M  V30 89 H -6.8158 2.1748 3.3938 0
M  V30 90 H -5.6775 2.0741 4.7377 0
M  V30 91 H -7.0526 0.9617 4.6637 0
M  V30 92 H -2.0673 0.9927 -6.4316 0
M  V30 93 H -1.4933 2.1454 -5.2050 0
M  V30 94 H -2.1940 2.7273 -6.7189 0
M  V30 95 H -4.7142 2.6357 -7.0796 0
M  V30 96 H -5.7073 1.7475 -5.9112 0
M  V30 97 H -4.5579 0.8788 -6.9293 0
M  V30 98 H -0.0493 -4.4012 3.0362 0
M  V30 99 H -1.5550 -5.3237 2.9168 0
M  V30 100 H -1.4052 -3.7952 2.0589 0
M  V30 101 H -0.4796 -7.4003 2.0876 0
M  V30 102 H 1.0901 -6.6136 2.3063 0
M  V30 103 H 0.6732 -7.3188 0.7449 0
M  V30 104 H 2.5462 5.4018 -1.4736 0
M  V30 105 H 4.1870 4.9455 -0.9858 0
M  V30 106 H 2.8932 5.0439 0.2188 0
M  V30 107 H 2.8816 1.8927 -2.7061 0
M  V30 108 H 4.1503 3.1316 -2.7351 0
M  V30 109 H 2.4854 3.5440 -3.1804 0
M  V30 110 H 7.5146 -6.4403 -2.4946 0
M  V30 111 H 7.2725 -4.8461 -1.7682 0
M  V30 112 H 8.9061 -5.4073 -2.1321 0
M  V30 113 H 8.5455 -5.1829 -5.8600 0
M  V30 114 H 8.2208 -6.6366 -4.9099 0
M  V30 115 H 9.6417 -5.6427 -4.5565 0
M  V30 116 H 5.8882 -5.7536 -4.3378 0
M  V30 117 H 6.2858 -4.3331 -5.3490 0
M  V30 END ATOM
M  V30 BEGIN BOND
M  V30 1 1 1 2
M  V30 2 1 2 14
M  V30 3 2 2 48
M  V30 4 1 3 1
M  V30 5 1 3 5
M  V30 6 2 4 3
M  V30 7 2 6 7
M  V30 8 1 6 4
M  V30 9 1 7 9
M  V30 10 1 8 6
M  V30 11 1 9 11
M  V30 12 2 9 1
M  V30 13 2 10 59
M  V30 14 1 10 7
M  V30 15 1 12 4
M  V30 16 1 12 15
M  V30 17 1 13 10
M  V30 18 1 16 17
M  V30 19 1 17 29
M  V30 20 2 17 52
M  V30 21 1 18 16
M  V30 22 1 18 20
M  V30 23 2 19 18
M  V30 24 2 21 22
M  V30 25 1 21 19
M  V30 26 1 22 24
M  V30 27 1 23 21
M  V30 28 1 24 26
M  V30 29 2 24 16
M  V30 30 2 25 56
M  V30 31 1 25 22
M  V30 32 1 27 19
M  V30 33 1 27 30
M  V30 34 1 28 25
M  V30 35 1 31 32
M  V30 36 1 32 67
M  V30 37 2 32 47
M  V30 38 1 33 35
M  V30 39 1 33 31
M  V30 40 2 34 33
M  V30 41 2 36 37
M  V30 42 1 36 34
M  V30 43 1 37 39
M  V30 44 1 38 36
M  V30 45 1 39 41
M  V30 46 2 39 31
M  V30 47 2 40 64
M  V30 48 1 40 37
M  V30 49 1 42 44
M  V30 50 1 42 34
M  V30 51 1 43 40
M  V30 52 1 45 70
M  V30 53 1 45 71
M  V30 54 1 46 72
M  V30 55 1 46 45
M  V30 56 1 46 73
M  V30 57 1 47 45
M  V30 58 1 48 46
M  V30 59 1 49 69
M  V30 60 1 50 116
M  V30 61 1 50 117
M  V30 62 1 50 49
M  V30 63 1 51 49
M  V30 64 1 51 66
M  V30 65 1 52 50
M  V30 66 1 53 55
M  V30 67 1 53 79
M  V30 68 1 54 53
M  V30 69 1 54 56
M  V30 70 2 55 12
M  V30 71 1 57 59
M  V30 72 1 57 58
M  V30 73 1 58 60
M  V30 74 1 58 80
M  V30 75 2 60 42
M  V30 76 1 61 63
M  V30 77 1 61 75
M  V30 78 1 62 77
M  V30 79 1 62 61
M  V30 80 1 62 64
M  V30 81 2 63 27
M  V30 82 1 65 51
M  V30 83 1 68 113
M  V30 84 1 68 49
M  V30 85 1 68 114
M  V30 86 1 69 112
M  V30 87 1 69 110
M  V30 88 1 69 111
M  V30 89 1 70 88
M  V30 90 1 70 87
M  V30 91 1 71 90
M  V30 92 1 71 91
M  V30 93 1 74 61
M  V30 94 1 76 62
M  V30 95 1 77 105
M  V30 96 1 78 53
M  V30 97 1 81 58
M  V30 98 1 82 57
M  V30 99 1 82 97
M  V30 100 1 83 93
M  V30 101 1 83 57
M  V30 102 1 84 103
M  V30 103 1 84 54
M  V30 104 1 85 54
M  V30 105 1 85 99
M  V30 106 1 86 70
M  V30 107 1 89 71
M  V30 108 1 92 83
M  V30 109 1 94 83
M  V30 110 1 95 82
M  V30 111 1 96 82
M  V30 112 1 98 85
M  V30 113 1 100 85
M  V30 114 1 101 84
M  V30 115 1 102 84
M  V30 116 1 104 77
M  V30 117 1 106 77
M  V30 118 1 107 76
M  V30 119 1 108 76
M  V30 120 1 109 76
M  V30 121 1 115 68
M  V30 END BOND
M  V30 END CTAB
M  END

$$$$
