
     RDKit          3D

  0  0  0  0  0  0  0  0  0  0999 V3000
M  V30 BEGIN CTAB
M  V30 COUNTS 99 105 0 0 0
M  V30 BEGIN ATOM
M  V30 1 C -2.3418 -1.9341 -0.8754 0
M  V30 2 C -2.7603 -1.9838 -2.3245 0
M  V30 3 C -1.4172 -2.8524 -0.3922 0
M  V30 4 C -1.0470 -2.8492 0.9515 0
M  V30 5 H -0.9999 -3.5850 -1.0688 0
M  V30 6 C -1.5920 -1.8936 1.8067 0
M  V30 7 C -2.5205 -0.9762 1.3340 0
M  V30 8 H -1.2903 -1.9019 2.8426 0
M  V30 9 C -2.8962 -1.0083 -0.0097 0
M  V30 10 C -3.0834 0.0270 2.2265 0
M  V30 11 H -3.6167 -0.2949 -0.3726 0
M  V30 12 C -0.1164 -3.8461 1.4597 0
M  V30 13 H -2.5100 0.2258 3.1457 0
M  V30 14 H 0.3571 -4.4909 0.7022 0
M  V30 15 C 3.3856 -1.2909 -1.0848 0
M  V30 16 C 3.0954 -1.9259 -2.4203 0
M  V30 17 C 3.8411 0.0142 -0.9797 0
M  V30 18 C 4.0854 0.5801 0.2717 0
M  V30 19 H 4.0077 0.6022 -1.8712 0
M  V30 20 C 3.8208 -0.1587 1.4224 0
M  V30 21 C 3.3521 -1.4628 1.3255 0
M  V30 22 H 3.9983 0.3032 2.3815 0
M  V30 23 C 3.1552 -2.0262 0.0657 0
M  V30 24 C 3.0054 -2.2336 2.5113 0
M  V30 25 H 2.8202 -3.0489 0.0044 0
M  V30 26 C 4.5978 1.9378 0.3564 0
M  V30 27 H 2.8817 -1.6611 3.4435 0
M  V30 28 H 4.6950 2.4661 -0.6039 0
M  V30 29 C 0.2454 2.5898 -1.7394 0
M  V30 30 C 0.5621 2.2020 -3.1601 0
M  V30 31 C -1.0618 2.4716 -1.2832 0
M  V30 32 C -1.3991 2.8564 0.0122 0
M  V30 33 H -1.8229 2.0789 -1.9417 0
M  V30 34 C -0.4050 3.3310 0.8652 0
M  V30 35 C 0.9048 3.4462 0.4200 0
M  V30 36 H -0.6833 3.6212 1.8668 0
M  V30 37 C 1.2215 3.0788 -0.8893 0
M  V30 38 C 1.9488 3.9154 1.3200 0
M  V30 39 H 2.2407 3.1705 -1.2251 0
M  V30 40 C -2.7814 2.7699 0.4548 0
M  V30 41 H 1.7263 3.8275 2.3953 0
M  V30 42 H -3.4810 2.3216 -0.2654 0
M  V30 43 C -2.9030 -0.3432 -4.0141 0
M  V30 44 C -2.0856 -1.5626 -4.4725 0
M  V30 45 N -3.4881 -0.7672 -2.7433 0
M  V30 46 H -2.2151 0.4877 -3.8217 0
M  V30 47 N -1.6213 -2.1377 -3.2197 0
M  V30 48 H -2.7282 -2.2951 -4.9733 0
M  V30 49 C 1.4914 -3.1737 -3.5039 0
M  V30 50 C 2.5370 -4.1643 -2.9639 0
M  V30 51 N 1.6574 -1.9985 -2.6586 0
M  V30 52 H 0.4659 -3.5343 -3.4734 0
M  V30 53 N 3.6088 -3.3090 -2.4632 0
M  V30 54 H 2.8876 -4.8696 -3.7173 0
M  V30 55 C 1.0408 0.5611 -4.6672 0
M  V30 56 C 2.2663 1.5034 -4.6196 0
M  V30 57 N 0.3203 0.7942 -3.4252 0
M  V30 58 H 1.3112 -0.4872 -4.7577 0
M  V30 59 N 1.9689 2.4122 -3.5165 0
M  V30 60 H 2.4110 2.0169 -5.5766 0
M  V30 61 C 1.0691 -4.9469 3.1309 0
M  V30 62 C 2.3461 -4.2073 3.5758 0
M  V30 63 N 0.1098 -3.9832 2.6933 0
M  V30 64 H 0.6509 -5.4822 3.9871 0
M  V30 65 N 2.8289 -3.4797 2.4493 0
M  V30 66 H 3.0956 -4.9519 3.8593 0
M  V30 67 C -4.6037 1.6940 2.7960 0
M  V30 68 C -4.5195 2.9960 1.9698 0
M  V30 69 N -4.1594 0.6278 1.9605 0
M  V30 70 H -5.6491 1.5184 3.0624 0
M  V30 71 N -3.1585 3.1991 1.5817 0
M  V30 72 H -4.8320 3.8364 2.5933 0
M  V30 73 C 5.3126 3.8528 1.4407 0
M  V30 74 C 4.0828 4.7087 1.8120 0
M  V30 75 N 4.9211 2.4774 1.4514 0
M  V30 76 H 6.0934 4.0012 2.1898 0
M  V30 77 N 3.0389 4.3837 0.8950 0
M  V30 78 H 4.3437 5.7634 1.6886 0
M  V30 79 H 1.1920 -2.1647 -1.7682 0
M  V30 80 H 3.5385 -1.3165 -3.2263 0
M  V30 81 H 4.4450 -3.3700 -3.0279 0
M  V30 82 H 2.1644 3.3800 -3.7383 0
M  V30 83 H 0.7542 0.2374 -2.6907 0
M  V30 84 H -0.1145 2.7702 -3.8338 0
M  V30 85 H -0.8595 -1.5546 -2.8793 0
M  V30 86 H -4.4773 -0.9620 -2.8363 0
M  V30 87 H -3.4021 -2.8754 -2.4584 0
M  V30 88 H 1.7406 -2.8920 -4.5328 0
M  V30 89 H -3.6621 -0.0303 -4.7309 0
M  V30 90 H 3.1826 0.9510 -4.3850 0
M  V30 91 H 2.1247 -3.5615 4.4405 0
M  V30 92 H -5.1916 2.8962 1.1044 0
M  V30 93 H 3.8007 4.5197 2.8603 0
M  V30 94 H -1.2494 -1.3079 -5.1180 0
M  V30 95 H 0.3855 0.8404 -5.4993 0
M  V30 96 H 1.3388 -5.6614 2.3371 0
M  V30 97 H -3.9984 1.8016 3.7106 0
M  V30 98 H 5.6723 4.1756 0.4518 0
M  V30 99 H 2.1204 -4.7319 -2.1228 0
M  V30 END ATOM
M  V30 BEGIN BOND
M  V30 1 1 1 2
M  V30 2 1 2 45
M  V30 3 1 2 47
M  V30 4 1 2 87
M  V30 5 1 3 1
M  V30 6 1 3 5
M  V30 7 2 4 3
M  V30 8 2 6 7
M  V30 9 1 6 4
M  V30 10 1 7 9
M  V30 11 1 8 6
M  V30 12 1 9 11
M  V30 13 2 9 1
M  V30 14 2 10 69
M  V30 15 1 10 7
M  V30 16 1 12 4
M  V30 17 1 12 14
M  V30 18 1 13 10
M  V30 19 1 15 16
M  V30 20 1 16 53
M  V30 21 1 16 51
M  V30 22 1 17 15
M  V30 23 1 17 19
M  V30 24 2 18 17
M  V30 25 2 20 21
M  V30 26 1 20 18
M  V30 27 1 21 23
M  V30 28 1 22 20
M  V30 29 1 23 25
M  V30 30 2 23 15
M  V30 31 2 24 65
M  V30 32 1 24 21
M  V30 33 1 26 18
M  V30 34 1 26 28
M  V30 35 1 27 24
M  V30 36 1 29 30
M  V30 37 1 30 84
M  V30 38 1 30 59
M  V30 39 1 30 57
M  V30 40 1 31 29
M  V30 41 1 31 33
M  V30 42 2 32 31
M  V30 43 2 34 35
M  V30 44 1 34 32
M  V30 45 1 35 37
M  V30 46 1 36 34
M  V30 47 1 37 39
M  V30 48 2 37 29
M  V30 49 2 38 77
M  V30 50 1 38 35
M  V30 51 1 40 32
M  V30 52 1 40 42
M  V30 53 1 41 38
M  V30 54 1 43 44
M  V30 55 1 43 89
M  V30 56 1 44 94
M  V30 57 1 44 48
M  V30 58 1 45 43
M  V30 59 1 45 86
M  V30 60 1 46 43
M  V30 61 1 47 44
M  V30 62 1 49 88
M  V30 63 1 50 49
M  V30 64 1 50 54
M  V30 65 1 50 99
M  V30 66 1 51 79
M  V30 67 1 51 49
M  V30 68 1 52 49
M  V30 69 1 53 50
M  V30 70 1 55 95
M  V30 71 1 56 55
M  V30 72 1 56 90
M  V30 73 1 56 60
M  V30 74 1 57 83
M  V30 75 1 57 55
M  V30 76 1 58 55
M  V30 77 1 59 56
M  V30 78 1 61 63
M  V30 79 1 61 64
M  V30 80 1 62 61
M  V30 81 1 62 65
M  V30 82 2 63 12
M  V30 83 1 66 62
M  V30 84 1 67 68
M  V30 85 1 67 69
M  V30 86 1 68 71
M  V30 87 1 68 72
M  V30 88 1 70 67
M  V30 89 2 71 40
M  V30 90 1 73 75
M  V30 91 1 73 76
M  V30 92 1 74 73
M  V30 93 1 74 77
M  V30 94 2 75 26
M  V30 95 1 78 74
M  V30 96 1 80 16
M  V30 97 1 81 53
M  V30 98 1 82 59
M  V30 99 1 85 47
M  V30 100 1 91 62
M  V30 101 1 92 68
M  V30 102 1 93 74
M  V30 103 1 96 61
M  V30 104 1 97 67
M  V30 105 1 98 73
M  V30 END BOND
M  V30 END CTAB
M  END

$$$$
