
 OpenBabel02282015293D

135138  0  0  0  0  0  0  0  0999 V2000
   -3.9060   -1.9947   -0.3638 C   0  0  0  0  0  0  0  0  0  0  0  0
   -4.5501   -1.8685    0.9633 C   0  0  0  0  0  0  0  0  0  0  0  0
   -3.1197   -3.1147   -0.6852 C   0  0  0  0  0  0  0  0  0  0  0  0
   -2.5198   -3.2269   -1.9479 C   0  0  0  0  0  0  0  0  0  0  0  0
   -2.9783   -3.9044    0.0433 H   0  0  0  0  0  0  0  0  0  0  0  0
   -2.7033   -2.2034   -2.8937 C   0  0  0  0  0  0  0  0  0  0  0  0
   -3.4863   -1.0810   -2.5847 C   0  0  0  0  0  0  0  0  0  0  0  0
   -2.2449   -2.2810   -3.8726 H   0  0  0  0  0  0  0  0  0  0  0  0
   -4.0872   -0.9830   -1.3172 C   0  0  0  0  0  0  0  0  0  0  0  0
   -3.6725   -0.0235   -3.6028 C   0  0  0  0  0  0  0  0  0  0  0  0
   -4.6950   -0.1204   -1.0699 H   0  0  0  0  0  0  0  0  0  0  0  0
   -1.7169   -4.4305   -2.2614 C   0  0  0  0  0  0  0  0  0  0  0  0
   -3.1456   -0.1067   -4.5509 H   0  0  0  0  0  0  0  0  0  0  0  0
   -5.1373   -0.9798    1.1835 H   0  0  0  0  0  0  0  0  0  0  0  0
   -1.5900   -5.1726   -1.4822 H   0  0  0  0  0  0  0  0  0  0  0  0
    3.7475   -2.6477   -0.1945 C   0  0  0  0  0  0  0  0  0  0  0  0
    3.8943   -3.3035    1.1250 C   0  0  0  0  0  0  0  0  0  0  0  0
    4.3236   -1.3905   -0.4496 C   0  0  0  0  0  0  0  0  0  0  0  0
    4.1900   -0.7875   -1.7087 C   0  0  0  0  0  0  0  0  0  0  0  0
    4.8849   -0.8835    0.3266 H   0  0  0  0  0  0  0  0  0  0  0  0
    3.4647   -1.4453   -2.7169 C   0  0  0  0  0  0  0  0  0  0  0  0
    2.8825   -2.6978   -2.4735 C   0  0  0  0  0  0  0  0  0  0  0  0
    3.3558   -0.9873   -3.6930 H   0  0  0  0  0  0  0  0  0  0  0  0
    3.0294   -3.2961   -1.2096 C   0  0  0  0  0  0  0  0  0  0  0  0
    2.1293   -3.3687   -3.5559 C   0  0  0  0  0  0  0  0  0  0  0  0
    2.5860   -4.2653   -1.0133 H   0  0  0  0  0  0  0  0  0  0  0  0
    4.8290    0.5247   -1.9559 C   0  0  0  0  0  0  0  0  0  0  0  0
    1.9899   -2.8477   -4.5006 H   0  0  0  0  0  0  0  0  0  0  0  0
    3.4242   -4.2706    1.2893 H   0  0  0  0  0  0  0  0  0  0  0  0
    5.3406    1.0231   -1.1353 H   0  0  0  0  0  0  0  0  0  0  0  0
    0.4980    4.3978   -0.1190 C   0  0  0  0  0  0  0  0  0  0  0  0
    0.9213    4.8394    1.2293 C   0  0  0  0  0  0  0  0  0  0  0  0
   -0.8631    4.2775   -0.4504 C   0  0  0  0  0  0  0  0  0  0  0  0
   -1.2512    3.8736   -1.7363 C   0  0  0  0  0  0  0  0  0  0  0  0
   -1.6228    4.5072    0.2875 H   0  0  0  0  0  0  0  0  0  0  0  0
   -0.2664    3.5798   -2.6949 C   0  0  0  0  0  0  0  0  0  0  0  0
    1.0949    3.6929   -2.3753 C   0  0  0  0  0  0  0  0  0  0  0  0
   -0.5562    3.2688   -3.6917 H   0  0  0  0  0  0  0  0  0  0  0  0
    1.4713    4.1046   -1.0847 C   0  0  0  0  0  0  0  0  0  0  0  0
    2.1092    3.3864   -3.4082 C   0  0  0  0  0  0  0  0  0  0  0  0
    2.5202    4.1994   -0.8295 H   0  0  0  0  0  0  0  0  0  0  0  0
   -2.6925    3.7818   -2.0624 C   0  0  0  0  0  0  0  0  0  0  0  0
    1.7633    3.0447   -4.3766 H   0  0  0  0  0  0  0  0  0  0  0  0
    1.9835    4.9210    1.4490 H   0  0  0  0  0  0  0  0  0  0  0  0
   -3.4060    3.9951   -1.2753 H   0  0  0  0  0  0  0  0  0  0  0  0
   -3.9594   -2.8277    4.2748 C   0  0  0  0  0  0  0  0  0  0  0  0
   -5.0302   -2.7217    3.1614 C   0  0  0  0  0  0  0  0  0  0  0  0
   -3.0224   -1.7007    4.1696 N   0  0  0  0  0  0  0  0  0  0  0  0
   -4.4239   -2.7989    1.8465 N   0  0  0  0  0  0  0  0  0  0  0  0
    4.2345   -2.4233    4.4850 C   0  0  0  0  0  0  0  0  0  0  0  0
    4.7629   -3.3541    3.3683 C   0  0  0  0  0  0  0  0  0  0  0  0
    2.8026   -2.1732    4.2756 N   0  0  0  0  0  0  0  0  0  0  0  0
    4.5812   -2.7477    2.0636 N   0  0  0  0  0  0  0  0  0  0  0  0
   -0.1463    4.6251    4.5446 C   0  0  0  0  0  0  0  0  0  0  0  0
    0.4127    5.5793    3.4613 C   0  0  0  0  0  0  0  0  0  0  0  0
   -1.6115    4.5664    4.4464 N   0  0  0  0  0  0  0  0  0  0  0  0
    0.2361    5.1750    5.9315 C   0  0  0  0  0  0  0  0  0  0  0  0
    0.0477    5.1325    2.1307 N   0  0  0  0  0  0  0  0  0  0  0  0
   -0.4321   -5.7567   -3.8889 C   0  0  0  0  0  0  0  0  0  0  0  0
    0.9208   -5.2498   -4.4339 C   0  0  0  0  0  0  0  0  0  0  0  0
   -1.2168   -4.6039   -3.4417 N   0  0  0  0  0  0  0  0  0  0  0  0
    1.6670   -4.5617   -3.3986 N   0  0  0  0  0  0  0  0  0  0  0  0
   -0.1770   -6.8126   -2.7807 C   0  0  0  0  0  0  0  0  0  0  0  0
   -4.6870    2.0177   -4.3627 C   0  0  0  0  0  0  0  0  0  0  0  0
   -4.4673    3.4079   -3.7271 C   0  0  0  0  0  0  0  0  0  0  0  0
   -4.4729    0.9645   -3.3898 N   0  0  0  0  0  0  0  0  0  0  0  0
   -3.0815    3.4971   -3.2629 N   0  0  0  0  0  0  0  0  0  0  0  0
   -5.5206    3.6360   -2.6106 C   0  0  0  0  0  0  0  0  0  0  0  0
    5.4623    2.3220   -3.4201 C   0  0  0  0  0  0  0  0  0  0  0  0
    4.4725    3.2993   -4.0907 C   0  0  0  0  0  0  0  0  0  0  0  0
    4.8252    1.0511   -3.1330 N   0  0  0  0  0  0  0  0  0  0  0  0
    3.3686    3.5498   -3.1634 N   0  0  0  0  0  0  0  0  0  0  0  0
    5.1885    4.6376   -4.3386 C   0  0  0  0  0  0  0  0  0  0  0  0
   -1.9042    4.1691    3.5240 H   0  0  0  0  0  0  0  0  0  0  0  0
   -2.0003    3.9472    5.1953 H   0  0  0  0  0  0  0  0  0  0  0  0
   -2.5082   -1.7328    3.2592 H   0  0  0  0  0  0  0  0  0  0  0  0
   -2.3115   -1.7480    4.9363 H   0  0  0  0  0  0  0  0  0  0  0  0
    2.2697   -3.0737    4.2979 H   0  0  0  0  0  0  0  0  0  0  0  0
    2.4268   -1.5542    5.0312 H   0  0  0  0  0  0  0  0  0  0  0  0
   -0.1932    6.1897    6.0785 H   0  0  0  0  0  0  0  0  0  0  0  0
    1.3404    5.2412    6.0396 H   0  0  0  0  0  0  0  0  0  0  0  0
   -0.1536    4.5151    6.7363 H   0  0  0  0  0  0  0  0  0  0  0  0
   -0.0098    6.5966    3.6105 H   0  0  0  0  0  0  0  0  0  0  0  0
    1.5190    5.6588    3.5695 H   0  0  0  0  0  0  0  0  0  0  0  0
    5.8480   -3.5431    3.5191 H   0  0  0  0  0  0  0  0  0  0  0  0
    4.2435   -4.3382    3.4279 H   0  0  0  0  0  0  0  0  0  0  0  0
    4.9926   -1.0807    4.4597 C   0  0  0  0  0  0  0  0  0  0  0  0
    4.8408   -0.5585    3.4910 H   0  0  0  0  0  0  0  0  0  0  0  0
    6.0825   -1.2424    4.6059 H   0  0  0  0  0  0  0  0  0  0  0  0
    4.6275   -0.4113    5.2682 H   0  0  0  0  0  0  0  0  0  0  0  0
    0.7462   -4.5812   -5.3084 H   0  0  0  0  0  0  0  0  0  0  0  0
    1.5246   -6.1122   -4.7918 H   0  0  0  0  0  0  0  0  0  0  0  0
   -1.2057   -6.4345   -5.0323 C   0  0  0  0  0  0  0  0  0  0  0  0
   -1.3905   -5.7151   -5.8593 H   0  0  0  0  0  0  0  0  0  0  0  0
   -2.1900   -6.8006   -4.6683 H   0  0  0  0  0  0  0  0  0  0  0  0
   -0.6375   -7.2986   -5.4402 H   0  0  0  0  0  0  0  0  0  0  0  0
    0.3851   -6.3731   -1.9289 H   0  0  0  0  0  0  0  0  0  0  0  0
    0.4219   -7.6594   -3.1803 H   0  0  0  0  0  0  0  0  0  0  0  0
   -1.1347   -7.2310   -2.4026 H   0  0  0  0  0  0  0  0  0  0  0  0
   -3.1936   -4.1640    4.1619 C   0  0  0  0  0  0  0  0  0  0  0  0
   -4.6619   -2.7637    5.6439 C   0  0  0  0  0  0  0  0  0  0  0  0
   -4.0095    1.8931   -5.2390 H   0  0  0  0  0  0  0  0  0  0  0  0
   -5.7309    1.9432   -4.7384 H   0  0  0  0  0  0  0  0  0  0  0  0
   -4.6682    4.4837   -4.8075 C   0  0  0  0  0  0  0  0  0  0  0  0
   -5.6968    4.4397   -5.2271 H   0  0  0  0  0  0  0  0  0  0  0  0
   -3.9445    4.3422   -5.6393 H   0  0  0  0  0  0  0  0  0  0  0  0
   -4.5060    5.4962   -4.3788 H   0  0  0  0  0  0  0  0  0  0  0  0
   -5.4193    2.8798   -1.8029 H   0  0  0  0  0  0  0  0  0  0  0  0
   -6.5494    3.5548   -3.0236 H   0  0  0  0  0  0  0  0  0  0  0  0
   -5.4184    4.6506   -2.1689 H   0  0  0  0  0  0  0  0  0  0  0  0
    6.0653    4.5019   -5.0084 H   0  0  0  0  0  0  0  0  0  0  0  0
    5.5443    5.0741   -3.3801 H   0  0  0  0  0  0  0  0  0  0  0  0
    4.4937    5.3651   -4.8111 H   0  0  0  0  0  0  0  0  0  0  0  0
    4.0259    2.7231   -5.4603 C   0  0  0  0  0  0  0  0  0  0  0  0
    3.5018    1.7514   -5.3346 H   0  0  0  0  0  0  0  0  0  0  0  0
    4.9069    2.5511   -6.1158 H   0  0  0  0  0  0  0  0  0  0  0  0
    3.3509    3.4306   -5.9883 H   0  0  0  0  0  0  0  0  0  0  0  0
    5.8698    2.7813   -2.4899 H   0  0  0  0  0  0  0  0  0  0  0  0
    6.3217    2.1385   -4.1014 H   0  0  0  0  0  0  0  0  0  0  0  0
   -5.3864   -3.5995    5.7552 H   0  0  0  0  0  0  0  0  0  0  0  0
   -5.2118   -1.8042    5.7540 H   0  0  0  0  0  0  0  0  0  0  0  0
   -3.9204   -2.8338    6.4688 H   0  0  0  0  0  0  0  0  0  0  0  0
   -5.7542   -3.5598    3.2590 H   0  0  0  0  0  0  0  0  0  0  0  0
   -5.5997   -1.7719    3.2852 H   0  0  0  0  0  0  0  0  0  0  0  0
    4.4515   -3.0999    5.8540 C   0  0  0  0  0  0  0  0  0  0  0  0
    0.4518    3.2118    4.3774 C   0  0  0  0  0  0  0  0  0  0  0  0
   -2.6626   -4.2366    3.1888 H   0  0  0  0  0  0  0  0  0  0  0  0
   -3.8924   -5.0243    4.2444 H   0  0  0  0  0  0  0  0  0  0  0  0
   -2.4368   -4.2488    4.9710 H   0  0  0  0  0  0  0  0  0  0  0  0
    0.1812    2.7809    3.3900 H   0  0  0  0  0  0  0  0  0  0  0  0
    0.0658    2.5300    5.1653 H   0  0  0  0  0  0  0  0  0  0  0  0
    1.5601    3.2441    4.4536 H   0  0  0  0  0  0  0  0  0  0  0  0
    5.5316   -3.2956    6.0291 H   0  0  0  0  0  0  0  0  0  0  0  0
    3.9086   -4.0683    5.9020 H   0  0  0  0  0  0  0  0  0  0  0  0
    4.0764   -2.4514    6.6747 H   0  0  0  0  0  0  0  0  0  0  0  0
  1  2  1  0  0  0  0
  2 14  1  0  0  0  0
  2 49  2  0  0  0  0
  3  1  1  0  0  0  0
  3  5  1  0  0  0  0
  4  3  2  0  0  0  0
  6  7  2  0  0  0  0
  6  4  1  0  0  0  0
  7  9  1  0  0  0  0
  8  6  1  0  0  0  0
  9 11  1  0  0  0  0
  9  1  2  0  0  0  0
 10 66  2  0  0  0  0
 10  7  1  0  0  0  0
 12  4  1  0  0  0  0
 12 15  1  0  0  0  0
 13 10  1  0  0  0  0
 16 17  1  0  0  0  0
 17 29  1  0  0  0  0
 17 53  2  0  0  0  0
 18 16  1  0  0  0  0
 18 20  1  0  0  0  0
 19 18  2  0  0  0  0
 21 22  2  0  0  0  0
 21 19  1  0  0  0  0
 22 24  1  0  0  0  0
 23 21  1  0  0  0  0
 24 26  1  0  0  0  0
 24 16  2  0  0  0  0
 25 62  2  0  0  0  0
 25 22  1  0  0  0  0
 27 19  1  0  0  0  0
 27 30  1  0  0  0  0
 28 25  1  0  0  0  0
 31 32  1  0  0  0  0
 32 44  1  0  0  0  0
 32 58  2  0  0  0  0
 33 31  1  0  0  0  0
 33 35  1  0  0  0  0
 34 33  2  0  0  0  0
 36 37  2  0  0  0  0
 36 34  1  0  0  0  0
 37 39  1  0  0  0  0
 38 36  1  0  0  0  0
 39 41  1  0  0  0  0
 39 31  2  0  0  0  0
 40 72  2  0  0  0  0
 40 37  1  0  0  0  0
 42 34  1  0  0  0  0
 42 45  1  0  0  0  0
 43 40  1  0  0  0  0
 46101  1  0  0  0  0
 47123  1  0  0  0  0
 47124  1  0  0  0  0
 47 46  1  0  0  0  0
 48 46  1  0  0  0  0
 48 77  1  0  0  0  0
 49 47  1  0  0  0  0
 50125  1  0  0  0  0
 51 86  1  0  0  0  0
 51 85  1  0  0  0  0
 51 50  1  0  0  0  0
 52 78  1  0  0  0  0
 52 50  1  0  0  0  0
 52 79  1  0  0  0  0
 53 51  1  0  0  0  0
 54 57  1  0  0  0  0
 55 84  1  0  0  0  0
 55 83  1  0  0  0  0
 55 54  1  0  0  0  0
 56 54  1  0  0  0  0
 56 75  1  0  0  0  0
 57 81  1  0  0  0  0
 57 80  1  0  0  0  0
 57 82  1  0  0  0  0
 58 55  1  0  0  0  0
 59 61  1  0  0  0  0
 59 63  1  0  0  0  0
 60 59  1  0  0  0  0
 60 62  1  0  0  0  0
 61 12  2  0  0  0  0
 63 99  1  0  0  0  0
 63 97  1  0  0  0  0
 64 65  1  0  0  0  0
 64 66  1  0  0  0  0
 65 67  1  0  0  0  0
 65 68  1  0  0  0  0
 67 42  2  0  0  0  0
 68110  1  0  0  0  0
 68108  1  0  0  0  0
 69 71  1  0  0  0  0
 69118  1  0  0  0  0
 70 69  1  0  0  0  0
 70 72  1  0  0  0  0
 71 27  2  0  0  0  0
 73 70  1  0  0  0  0
 73112  1  0  0  0  0
 74 56  1  0  0  0  0
 76 48  1  0  0  0  0
 87 50  1  0  0  0  0
 87 89  1  0  0  0  0
 87 90  1  0  0  0  0
 88 87  1  0  0  0  0
 91 60  1  0  0  0  0
 92 60  1  0  0  0  0
 93 95  1  0  0  0  0
 93 59  1  0  0  0  0
 94 93  1  0  0  0  0
 96 93  1  0  0  0  0
 98 63  1  0  0  0  0
100128  1  0  0  0  0
100 46  1  0  0  0  0
100129  1  0  0  0  0
101121  1  0  0  0  0
101120  1  0  0  0  0
101122  1  0  0  0  0
102 64  1  0  0  0  0
103 64  1  0  0  0  0
104107  1  0  0  0  0
104 65  1  0  0  0  0
105104  1  0  0  0  0
106104  1  0  0  0  0
109 68  1  0  0  0  0
111 73  1  0  0  0  0
113 73  1  0  0  0  0
114115  1  0  0  0  0
114 70  1  0  0  0  0
116114  1  0  0  0  0
117114  1  0  0  0  0
119 69  1  0  0  0  0
125134  1  0  0  0  0
125133  1  0  0  0  0
125135  1  0  0  0  0
126132  1  0  0  0  0
126 54  1  0  0  0  0
126131  1  0  0  0  0
127100  1  0  0  0  0
130126  1  0  0  0  0
M  END
