159

C -4.202800 -0.746500 -0.187200
C -5.059100 -0.331800 0.981800
C -3.216000 -1.710500 -0.046400
C -2.434100 -2.088400 -1.136600
H -3.092700 -2.190400 0.912400
C -2.613200 -1.445600 -2.358900
C -3.600200 -0.479700 -2.511800
H -1.993900 -1.744200 -3.190700
C -4.402800 -0.146700 -1.420900
C -3.782200 0.167300 -3.802900
H -5.182600 0.586300 -1.553300
C -1.506700 -3.205600 -1.024400
H -2.916900 0.109500 -4.482700
H -1.363100 -3.619900 -0.014000
C 3.929300 -1.483000 1.346300
C 4.386900 -2.133200 2.632900
C 4.222200 -0.156400 1.061800
C 3.859200 0.404000 -0.161500
H 4.753300 0.431100 1.795900
C 3.173500 -0.367900 -1.094600
C 2.846400 -1.688400 -0.806100
H 2.900100 0.081900 -2.036900
C 3.231500 -2.238400 0.417500
C 2.145000 -2.513000 -1.780600
H 2.983400 -3.268600 0.619600
C 4.213700 1.787700 -0.451500
H 1.872600 -2.023200 -2.727500
H 4.361200 2.434400 0.428700
C -1.205800 2.916800 -0.200100
C -1.301700 2.577000 1.266200
C -2.361800 2.890500 -0.969100
C -2.305100 3.123800 -2.341300
H -3.310700 2.673500 -0.498900
C -1.072500 3.361800 -2.944800
C 0.084200 3.410600 -2.177400
H -1.044500 3.523800 -4.011600
C 0.009400 3.194400 -0.800400
C 1.379300 3.637000 -2.803800
H 0.911300 3.239700 -0.212300
C -3.532700 3.076000 -3.115100
H 1.438800 3.397600 -3.878200
H -4.447200 2.919200 -2.524500
C -4.485400 -0.493900 3.241400
C -4.947400 0.929400 2.885700
N -4.961300 -1.287200 2.114000
H -3.386700 -0.512500 3.200900
C -4.939000 -0.869600 4.637400
N -4.667200 1.001300 1.459500
H -6.041100 0.984500 2.998100
C -4.304700 1.946300 3.805200
C -4.329500 0.149100 5.605900
C -4.701700 1.589300 5.241300
C 6.523000 -1.550100 3.269300
C 6.458700 -3.081200 3.135700
N 5.128200 -1.186400 3.477600
H 6.816900 -1.127500 2.297700
C 7.541400 -1.151000 4.316500
N 5.260300 -3.296300 2.337900
H 6.259200 -3.510700 4.129800
C 7.778800 -3.619100 2.622400
C 8.898900 -1.702200 3.867600
C 8.862000 -3.214600 3.627900
C 0.519500 1.635400 2.371800
C -0.699200 0.707800 2.509000
N -0.073500 2.912700 2.002100
H 1.125900 1.295400 1.519300
C 1.352400 1.575900 3.636200
N -1.568400 1.123800 1.417200
H -1.223400 0.965800 3.443200
C -0.250500 -0.736200 2.584300
C 1.797800 0.123300 3.830000
C 0.626800 -0.864300 3.834400
C -0.162600 -4.885000 -1.962700
C 1.245300 -4.556100 -2.502500
N -0.966000 -3.706900 -2.047200
H -0.058100 -5.251100 -0.925400
C -0.834100 -5.951300 -2.836000
N 1.899600 -3.726000 -1.542500
H 1.123900 -4.055400 -3.479500
C 2.078200 -5.832600 -2.651400
C 0.018200 -7.208000 -2.948500
C 1.382600 -6.861400 -3.532200
C -4.904100 1.458400 -5.370700
C -4.812800 2.973600 -5.034200
N -4.853400 0.746600 -4.134800
H -4.046700 1.210200 -6.023100
C -6.217400 1.181000 -6.098600
N -3.563200 3.189500 -4.373900
H -5.667000 3.208400 -4.375700
C -4.894400 3.789500 -6.320400
C -6.311800 2.009600 -7.375000
C -6.195100 3.498100 -7.060600
C 4.698200 3.582500 -1.847200
C 3.642300 4.192500 -2.787000
N 4.365400 2.208500 -1.629100
H 4.687200 4.154000 -0.901100
C 6.079700 3.696100 -2.495400
N 2.368800 4.061500 -2.150300
H 3.671100 3.653300 -3.751100
C 3.974300 5.667600 -3.027300
C 6.418400 5.158100 -2.765800
C 5.358100 5.803400 -3.653500
H 4.886300 -1.328800 4.453500
H 3.506300 -2.501000 3.177600
H 5.495100 -3.302300 1.349000
H -1.300100 0.639400 0.562800
H -0.296100 3.447000 2.835200
H -2.155200 3.120400 1.697400
H -3.656800 1.106800 1.337300
H -5.873800 -1.680000 2.319000
H -6.104900 -0.265800 0.641900
H -0.489600 -7.937900 -3.582300
H 0.148100 -7.652700 -1.959300
H 2.000700 -7.758500 -3.605900
H 1.255200 -6.456400 -4.538800
H -1.810200 -6.187200 -2.406500
H -1.000000 -5.521900 -3.825700
H 3.051300 -5.566400 -3.069600
H 2.244500 -6.244700 -1.654500
H -3.242000 0.043700 5.585900
H -4.665600 -0.063300 6.622900
H -5.781300 1.716900 5.350700
H -4.215200 2.274200 5.939100
H -3.220600 1.906300 3.690900
H -4.638200 2.956000 3.559900
H -4.613200 -1.878900 4.896500
H -6.030200 -0.837300 4.697200
H -6.231400 4.078300 -7.984900
H -7.040400 3.803800 -6.439500
H -4.828000 4.850200 -6.070500
H -4.037100 3.538600 -6.947100
H -7.261300 1.807100 -7.874800
H -5.506700 1.719400 -8.054300
H -6.273500 0.115700 -6.332100
H -7.043900 1.421200 -5.427800
H 3.215300 6.100500 -3.682700
H 3.934900 6.195700 -2.073000
H 5.591200 6.859600 -3.803700
H 5.361100 5.316900 -4.631800
H 7.397000 5.226100 -3.245800
H 6.471900 5.697400 -1.817100
H 6.823800 3.250000 -1.831700
H 6.077200 3.127700 -3.427100
H 9.654200 -1.476500 4.622700
H 9.192800 -1.200800 2.942500
H 9.838100 -3.544600 3.267700
H 8.668500 -3.722400 4.575800
H 7.996800 -3.190800 1.640700
H 7.743300 -4.704900 2.521300
H 7.264800 -1.575100 5.285100
H 7.589200 -0.065800 4.420500
H 0.321800 -0.997600 1.690200
H -1.106700 -1.410100 2.651900
H 2.346600 0.033400 4.769400
H 2.480100 -0.137700 3.021200
H 1.017900 -1.881100 3.902600
H 0.007400 -0.687300 4.718000
H 0.754200 1.908500 4.489500
H 2.224900 2.225900 3.558200
