
     RDKit          3D

  0  0  0  0  0  0  0  0  0  0999 V3000
M  V30 BEGIN CTAB
M  V30 COUNTS 137 146 0 0 0
M  V30 BEGIN ATOM
M  V30 1 C -3.3192 -1.4255 -0.1460 0
M  V30 2 C -3.3564 -1.1076 1.2720 0
M  V30 3 C -2.5731 -2.4936 -0.6411 0
M  V30 4 C -2.4920 -2.7238 -2.0107 0
M  V30 5 H -2.0589 -3.1312 0.0618 0
M  V30 6 C -3.1191 -1.8440 -2.8936 0
M  V30 7 C -3.8664 -0.7750 -2.4140 0
M  V30 8 H -3.0129 -2.0216 -3.9529 0
M  V30 9 C -3.9863 -0.5927 -1.0375 0
M  V30 10 C -4.4386 0.2077 -3.3247 0
M  V30 11 H -4.5811 0.2349 -0.6845 0
M  V30 12 C -1.7324 -3.8594 -2.5106 0
M  V30 13 H -4.0123 0.2154 -4.3404 0
M  V30 14 H -4.0515 -0.2998 1.5473 0
M  V30 15 H -1.2664 -4.4917 -1.7401 0
M  V30 16 C 2.0145 -2.0023 0.2643 0
M  V30 17 C 1.7556 -2.6109 1.5636 0
M  V30 18 C 2.6454 -0.7629 0.1638 0
M  V30 19 C 2.9003 -0.1917 -1.0779 0
M  V30 20 H 2.9384 -0.2590 1.0730 0
M  V30 21 C 2.4923 -0.8577 -2.2332 0
M  V30 22 C 1.8652 -2.0950 -2.1495 0
M  V30 23 H 2.6861 -0.3928 -3.1876 0
M  V30 24 C 1.6381 -2.6653 -0.8978 0
M  V30 25 C 1.4148 -2.7776 -3.3546 0
M  V30 26 H 1.1551 -3.6293 -0.8551 0
M  V30 27 C 3.5561 1.1043 -1.1539 0
M  V30 28 H 1.3266 -2.1496 -4.2549 0
M  V30 29 H 1.2800 -3.5971 1.5208 0
M  V30 30 H 3.7243 1.6040 -0.1869 0
M  V30 31 C -0.9369 1.9432 0.5275 0
M  V30 32 C -0.7120 1.0674 1.6704 0
M  V30 33 C -2.2373 2.2615 0.1409 0
M  V30 34 C -2.4828 2.9321 -1.0524 0
M  V30 35 H -3.0502 1.9333 0.7693 0
M  V30 36 C -1.4077 3.3270 -1.8469 0
M  V30 37 C -0.1027 3.0806 -1.4372 0
M  V30 38 H -1.6145 3.8290 -2.7797 0
M  V30 39 C 0.1264 2.3752 -0.2567 0
M  V30 40 C 1.0246 3.4638 -2.2789 0
M  V30 41 H 1.1450 2.1536 0.0214 0
M  V30 42 C -3.8562 3.1067 -1.4967 0
M  V30 43 H 0.8128 3.5242 -3.3586 0
M  V30 44 H -4.6252 2.8251 -0.7613 0
M  V30 45 C -1.4020 -0.1400 3.5426 0
M  V30 46 C -2.6042 -1.1128 3.4536 0
M  V30 47 N -1.6002 0.8605 2.5410 0
M  V30 48 N -2.6110 -1.6582 2.1297 0
M  V30 49 C 3.2845 -2.5802 4.6294 0
M  V30 50 C 1.8890 -2.5637 3.9423 0
M  V30 51 N 3.9818 -1.3125 4.5610 0
M  V30 52 N 2.0669 -2.0177 2.6328 0
M  V30 53 C -0.7850 -5.1979 -4.1537 0
M  V30 54 C 0.5989 -4.6175 -4.5325 0
M  V30 55 N -1.6161 -4.1085 -3.7423 0
M  V30 56 N 1.1324 -4.0059 -3.3578 0
M  V30 57 C -5.7202 2.0887 -3.8318 0
M  V30 58 C -5.5331 3.4167 -3.0559 0
M  V30 59 N -5.3190 1.0319 -2.9577 0
M  V30 60 N -4.1592 3.4857 -2.6621 0
M  V30 61 C 4.4169 2.9692 -2.2162 0
M  V30 62 C 3.2781 3.9079 -2.6760 0
M  V30 63 N 3.9028 1.6350 -2.2449 0
M  V30 64 N 2.1703 3.6772 -1.8020 0
M  V30 65 H 4.0685 -1.0315 3.5901 0
M  V30 66 H 3.4425 -0.5952 5.0367 0
M  V30 67 H 0.2617 0.5532 1.6881 0
M  V30 68 C 1.2338 -3.9421 4.0570 0
M  V30 69 C -1.3696 0.4870 4.9376 0
M  V30 70 C 3.7670 5.3547 -2.5978 0
M  V30 71 C -7.1895 1.9520 -4.2330 0
M  V30 72 C 1.5115 -5.7516 -5.0019 0
M  V30 73 H 0.4600 -3.8867 -5.3501 0
M  V30 74 C 0.8994 -6.4720 -6.1981 0
M  V30 75 H 2.4860 -5.3351 -5.2660 0
M  V30 76 H 1.6567 -6.4475 -4.1739 0
M  V30 77 C -0.4794 -7.0230 -5.8470 0
M  V30 78 H 1.5575 -7.2849 -6.5117 0
M  V30 79 H 0.8081 -5.7732 -7.0330 0
M  V30 80 C -1.3955 -5.9054 -5.3606 0
M  V30 81 H -0.3788 -7.7757 -5.0615 0
M  V30 82 H -0.9206 -7.5071 -6.7204 0
M  V30 83 H -1.5508 -5.1708 -6.1524 0
M  V30 84 H -2.3710 -6.3074 -5.0801 0
M  V30 85 H -0.6210 -5.9161 -3.3311 0
M  V30 86 H -0.4735 -0.7102 3.3638 0
M  V30 87 C -1.2595 -0.5912 6.0108 0
M  V30 88 H -2.2816 1.0696 5.0795 0
M  V30 89 H -0.5209 1.1721 4.9987 0
M  V30 90 C -2.4087 -1.5895 5.9026 0
M  V30 91 H -1.2622 -0.1258 6.9988 0
M  V30 92 H -0.3104 -1.1204 5.8950 0
M  V30 93 C -2.4614 -2.2050 4.5081 0
M  V30 94 H -3.3517 -1.0769 6.1064 0
M  V30 95 H -2.2886 -2.3772 6.6495 0
M  V30 96 H -3.3061 -2.8922 4.4283 0
M  V30 97 H -1.5497 -2.7687 4.3084 0
M  V30 98 H -3.5148 -0.5180 3.6471 0
M  V30 99 H 3.0215 3.6686 -3.7237 0
M  V30 100 C 5.6148 3.1338 -3.1465 0
M  V30 101 H 4.6935 3.2695 -1.1894 0
M  V30 102 C 6.1037 4.5787 -3.1140 0
M  V30 103 H 5.3172 2.8542 -4.1584 0
M  V30 104 H 6.4107 2.4564 -2.8308 0
M  V30 105 C 4.9838 5.5425 -3.4989 0
M  V30 106 H 6.9461 4.6984 -3.7980 0
M  V30 107 H 6.4539 4.8168 -2.1068 0
M  V30 108 H 4.6936 5.3624 -4.5368 0
M  V30 109 H 5.3391 6.5723 -3.4246 0
M  V30 110 H 4.0199 5.5875 -1.5620 0
M  V30 111 H 2.9590 6.0222 -2.9058 0
M  V30 112 H -5.0935 2.1222 -4.7414 0
M  V30 113 C -5.9198 4.5876 -3.9535 0
M  V30 114 H -6.2014 3.3755 -2.1773 0
M  V30 115 C -7.3747 4.4542 -4.3925 0
M  V30 116 H -5.2593 4.5982 -4.8220 0
M  V30 117 H -5.7720 5.5212 -3.4073 0
M  V30 118 C -7.6057 3.1276 -5.1115 0
M  V30 119 H -7.6388 5.2836 -5.0514 0
M  V30 120 H -8.0219 4.5058 -3.5136 0
M  V30 121 H -8.6595 3.0290 -5.3797 0
M  V30 122 H -7.0220 3.1109 -6.0349 0
M  V30 123 H -7.8002 1.9169 -3.3293 0
M  V30 124 H -7.3262 1.0100 -4.7688 0
M  V30 125 H 1.2775 -1.8258 4.4835 0
M  V30 126 C 3.1265 -3.0000 6.0903 0
M  V30 127 H 3.9077 -3.3148 4.1041 0
M  V30 128 C 2.4480 -4.3600 6.2083 0
M  V30 129 H 2.5316 -2.2463 6.6133 0
M  V30 130 H 4.1144 -3.0231 6.5518 0
M  V30 131 C 1.0857 -4.3379 5.5223 0
M  V30 132 H 2.3308 -4.6239 7.2612 0
M  V30 133 H 3.0771 -5.1205 5.7403 0
M  V30 134 H 0.4331 -3.6234 6.0306 0
M  V30 135 H 0.6169 -5.3221 5.5910 0
M  V30 136 H 1.8562 -4.6804 3.5443 0
M  V30 137 H 0.2532 -3.9263 3.5731 0
M  V30 END ATOM
M  V30 BEGIN BOND
M  V30 1 1 1 2
M  V30 2 1 2 14
M  V30 3 2 2 48
M  V30 4 1 3 1
M  V30 5 1 3 5
M  V30 6 2 4 3
M  V30 7 2 6 7
M  V30 8 1 6 4
M  V30 9 1 7 9
M  V30 10 1 8 6
M  V30 11 1 9 11
M  V30 12 2 9 1
M  V30 13 2 10 59
M  V30 14 1 10 7
M  V30 15 1 12 4
M  V30 16 1 12 15
M  V30 17 1 13 10
M  V30 18 1 16 18
M  V30 19 1 16 17
M  V30 20 2 17 52
M  V30 21 1 18 20
M  V30 22 1 19 27
M  V30 23 2 19 18
M  V30 24 1 21 19
M  V30 25 2 22 21
M  V30 26 1 22 24
M  V30 27 1 23 21
M  V30 28 2 24 16
M  V30 29 1 25 22
M  V30 30 1 26 24
M  V30 31 1 27 30
M  V30 32 1 28 25
M  V30 33 1 29 17
M  V30 34 1 31 32
M  V30 35 2 32 47
M  V30 36 1 32 67
M  V30 37 1 33 35
M  V30 38 2 33 31
M  V30 39 1 34 33
M  V30 40 2 36 34
M  V30 41 1 36 37
M  V30 42 2 37 39
M  V30 43 1 38 36
M  V30 44 1 39 41
M  V30 45 1 39 31
M  V30 46 2 40 64
M  V30 47 1 40 37
M  V30 48 1 42 44
M  V30 49 1 42 34
M  V30 50 1 43 40
M  V30 51 1 45 86
M  V30 52 1 45 69
M  V30 53 1 46 98
M  V30 54 1 46 45
M  V30 55 1 46 93
M  V30 56 1 47 45
M  V30 57 1 48 46
M  V30 58 1 49 127
M  V30 59 1 49 126
M  V30 60 1 50 125
M  V30 61 1 50 68
M  V30 62 1 50 49
M  V30 63 1 51 49
M  V30 64 1 51 66
M  V30 65 1 52 50
M  V30 66 1 53 55
M  V30 67 1 53 85
M  V30 68 1 54 73
M  V30 69 1 54 53
M  V30 70 1 54 56
M  V30 71 2 55 12
M  V30 72 2 56 25
M  V30 73 1 57 112
M  V30 74 1 57 58
M  V30 75 1 57 59
M  V30 76 1 58 60
M  V30 77 1 58 114
M  V30 78 2 60 42
M  V30 79 1 61 101
M  V30 80 1 62 99
M  V30 81 1 62 64
M  V30 82 1 62 61
M  V30 83 1 63 61
M  V30 84 2 63 27
M  V30 85 1 65 51
M  V30 86 1 68 136
M  V30 87 1 68 131
M  V30 88 1 69 88
M  V30 89 1 69 89
M  V30 90 1 69 87
M  V30 91 1 70 62
M  V30 92 1 70 110
M  V30 93 1 71 57
M  V30 94 1 71 123
M  V30 95 1 72 54
M  V30 96 1 72 76
M  V30 97 1 74 77
M  V30 98 1 74 72
M  V30 99 1 75 72
M  V30 100 1 77 80
M  V30 101 1 77 81
M  V30 102 1 78 74
M  V30 103 1 79 74
M  V30 104 1 80 84
M  V30 105 1 80 53
M  V30 106 1 82 77
M  V30 107 1 83 80
M  V30 108 1 87 91
M  V30 109 1 90 87
M  V30 110 1 90 94
M  V30 111 1 90 95
M  V30 112 1 92 87
M  V30 113 1 93 90
M  V30 114 1 96 93
M  V30 115 1 97 93
M  V30 116 1 100 104
M  V30 117 1 100 61
M  V30 118 1 102 100
M  V30 119 1 102 107
M  V30 120 1 103 100
M  V30 121 1 105 109
M  V30 122 1 105 102
M  V30 123 1 105 70
M  V30 124 1 106 102
M  V30 125 1 108 105
M  V30 126 1 111 70
M  V30 127 1 113 117
M  V30 128 1 113 58
M  V30 129 1 115 113
M  V30 130 1 115 120
M  V30 131 1 116 113
M  V30 132 1 118 115
M  V30 133 1 118 71
M  V30 134 1 119 115
M  V30 135 1 121 118
M  V30 136 1 122 118
M  V30 137 1 124 71
M  V30 138 1 126 128
M  V30 139 1 126 130
M  V30 140 1 128 133
M  V30 141 1 128 132
M  V30 142 1 129 126
M  V30 143 1 131 135
M  V30 144 1 131 128
M  V30 145 1 134 131
M  V30 146 1 137 68
M  V30 END BOND
M  V30 END CTAB
M  END

$$$$
