
 OpenBabel02082013573D

102106  0  0  0  0  0  0  0  0999 V2000
   -3.5326   -1.6097   -0.7365 C   0  0  0  0  0  0  0  0  0  0  0  0
   -3.6226   -1.3285    0.7062 C   0  0  0  0  0  0  0  0  0  0  0  0
   -2.7668   -2.6905   -1.1825 C   0  0  0  0  0  0  0  0  0  0  0  0
   -2.5735   -2.9154   -2.5421 C   0  0  0  0  0  0  0  0  0  0  0  0
   -2.2998   -3.3566   -0.4659 H   0  0  0  0  0  0  0  0  0  0  0  0
   -3.1555   -2.0439   -3.4780 C   0  0  0  0  0  0  0  0  0  0  0  0
   -3.9512   -0.9647   -3.0499 C   0  0  0  0  0  0  0  0  0  0  0  0
   -3.0000   -2.2083   -4.5371 H   0  0  0  0  0  0  0  0  0  0  0  0
   -4.1450   -0.7554   -1.6711 C   0  0  0  0  0  0  0  0  0  0  0  0
   -4.5045   -0.0388   -4.0685 C   0  0  0  0  0  0  0  0  0  0  0  0
   -4.7298    0.0877   -1.3249 H   0  0  0  0  0  0  0  0  0  0  0  0
   -1.7852   -4.0952   -2.9429 C   0  0  0  0  0  0  0  0  0  0  0  0
   -4.1738   -0.1680   -5.0966 H   0  0  0  0  0  0  0  0  0  0  0  0
   -4.1754   -0.4537    1.0341 H   0  0  0  0  0  0  0  0  0  0  0  0
   -1.5146   -4.8153   -2.1720 H   0  0  0  0  0  0  0  0  0  0  0  0
    3.0845   -3.4974    0.3045 C   0  0  0  0  0  0  0  0  0  0  0  0
    3.2847   -4.2483    1.5630 C   0  0  0  0  0  0  0  0  0  0  0  0
    3.6447   -2.2220    0.1341 C   0  0  0  0  0  0  0  0  0  0  0  0
    3.4817   -1.5263   -1.0707 C   0  0  0  0  0  0  0  0  0  0  0  0
    4.2247   -1.7753    0.9340 H   0  0  0  0  0  0  0  0  0  0  0  0
    2.7292   -2.1092   -2.1113 C   0  0  0  0  0  0  0  0  0  0  0  0
    2.1509   -3.3825   -1.9486 C   0  0  0  0  0  0  0  0  0  0  0  0
    2.5993   -1.5790   -3.0471 H   0  0  0  0  0  0  0  0  0  0  0  0
    2.3403   -4.0725   -0.7368 C   0  0  0  0  0  0  0  0  0  0  0  0
    1.4003   -4.0029   -3.0743 C   0  0  0  0  0  0  0  0  0  0  0  0
    1.9175   -5.0610   -0.6035 H   0  0  0  0  0  0  0  0  0  0  0  0
    4.1098   -0.1910   -1.2160 C   0  0  0  0  0  0  0  0  0  0  0  0
    1.2931   -3.4459   -3.9999 H   0  0  0  0  0  0  0  0  0  0  0  0
    2.8580   -5.2395    1.6764 H   0  0  0  0  0  0  0  0  0  0  0  0
    4.5627    0.2576   -0.3390 H   0  0  0  0  0  0  0  0  0  0  0  0
   -1.0868    1.6305   -0.0059 C   0  0  0  0  0  0  0  0  0  0  0  0
   -0.9351    0.8538    1.2524 C   0  0  0  0  0  0  0  0  0  0  0  0
   -2.3472    1.9796   -0.5149 C   0  0  0  0  0  0  0  0  0  0  0  0
   -2.4566    2.6296   -1.7591 C   0  0  0  0  0  0  0  0  0  0  0  0
   -3.2431    1.7072    0.0285 H   0  0  0  0  0  0  0  0  0  0  0  0
   -1.3010    2.9541   -2.4807 C   0  0  0  0  0  0  0  0  0  0  0  0
   -0.0414    2.6152   -1.9856 C   0  0  0  0  0  0  0  0  0  0  0  0
   -1.3810    3.4331   -3.4501 H   0  0  0  0  0  0  0  0  0  0  0  0
    0.0627    1.9490   -0.7484 C   0  0  0  0  0  0  0  0  0  0  0  0
    1.1516    2.8924   -2.8116 C   0  0  0  0  0  0  0  0  0  0  0  0
    1.0361    1.6550   -0.3735 H   0  0  0  0  0  0  0  0  0  0  0  0
   -3.7912    2.8721   -2.3314 C   0  0  0  0  0  0  0  0  0  0  0  0
    1.0363    3.3808   -3.7776 H   0  0  0  0  0  0  0  0  0  0  0  0
   -4.6488    2.5158   -1.7734 H   0  0  0  0  0  0  0  0  0  0  0  0
   -1.7912   -0.4320    3.0907 C   0  0  0  0  0  0  0  0  0  0  0  0
   -2.7359   -1.6775    2.9479 C   0  0  0  0  0  0  0  0  0  0  0  0
   -1.9465    0.5098    1.9862 N   0  0  0  0  0  0  0  0  0  0  0  0
   -2.9119   -2.0178    1.5428 N   0  0  0  0  0  0  0  0  0  0  0  0
    3.9394   -3.7747    2.4791 O   0  0  0  0  0  0  0  0  0  0  0  0
   -1.0039   -5.6484   -4.5580 C   0  0  0  0  0  0  0  0  0  0  0  0
    0.4663   -6.0073   -4.1212 C   0  0  0  0  0  0  0  0  0  0  0  0
   -1.5398   -4.3601   -4.1778 N   0  0  0  0  0  0  0  0  0  0  0  0
    1.0156   -5.2374   -3.0047 N   0  0  0  0  0  0  0  0  0  0  0  0
   -5.6058    1.9838   -4.7345 C   0  0  0  0  0  0  0  0  0  0  0  0
   -5.2194    3.4102   -4.2218 C   0  0  0  0  0  0  0  0  0  0  0  0
   -5.2678    0.9582   -3.7563 N   0  0  0  0  0  0  0  0  0  0  0  0
   -3.9352    3.3588   -3.5249 N   0  0  0  0  0  0  0  0  0  0  0  0
    4.6211    1.7696   -2.6167 C   0  0  0  0  0  0  0  0  0  0  0  0
    3.4734    2.5506   -3.2828 C   0  0  0  0  0  0  0  0  0  0  0  0
    4.1139    0.4186   -2.3551 N   0  0  0  0  0  0  0  0  0  0  0  0
    2.2986    2.4479   -2.4493 N   0  0  0  0  0  0  0  0  0  0  0  0
    0.0613    0.4939    1.5000 H   0  0  0  0  0  0  0  0  0  0  0  0
   -1.1162   -5.7806   -5.6555 H   0  0  0  0  0  0  0  0  0  0  0  0
   -1.7203   -6.3919   -4.1396 H   0  0  0  0  0  0  0  0  0  0  0  0
    3.2431    2.0745   -4.2635 H   0  0  0  0  0  0  0  0  0  0  0  0
    3.7427    3.6149   -3.4656 H   0  0  0  0  0  0  0  0  0  0  0  0
   -0.7373   -0.7931    3.0946 H   0  0  0  0  0  0  0  0  0  0  0  0
   -1.9424    0.0677    4.0712 H   0  0  0  0  0  0  0  0  0  0  0  0
    5.8105    1.6704   -3.5847 C   0  0  0  0  0  0  0  0  0  0  0  0
    5.5135    1.1450   -4.5179 H   0  0  0  0  0  0  0  0  0  0  0  0
    6.6397    1.0977   -3.1158 H   0  0  0  0  0  0  0  0  0  0  0  0
    6.1876    2.6807   -3.8549 H   0  0  0  0  0  0  0  0  0  0  0  0
    5.0798    2.5301   -1.3449 C   0  0  0  0  0  0  0  0  0  0  0  0
    4.2472    2.6318   -0.6160 H   0  0  0  0  0  0  0  0  0  0  0  0
    5.4236    3.5538   -1.6106 H   0  0  0  0  0  0  0  0  0  0  0  0
    5.9305    2.0121   -0.8532 H   0  0  0  0  0  0  0  0  0  0  0  0
    1.4243   -5.9108   -5.3312 C   0  0  0  0  0  0  0  0  0  0  0  0
    2.4510   -6.2187   -5.0343 H   0  0  0  0  0  0  0  0  0  0  0  0
    1.4678   -4.8805   -5.7375 H   0  0  0  0  0  0  0  0  0  0  0  0
    1.0890   -6.5824   -6.1510 H   0  0  0  0  0  0  0  0  0  0  0  0
    0.4511   -7.4802   -3.6642 C   0  0  0  0  0  0  0  0  0  0  0  0
   -0.2134   -7.5958   -2.7781 H   0  0  0  0  0  0  0  0  0  0  0  0
    1.4668   -7.8174   -3.3674 H   0  0  0  0  0  0  0  0  0  0  0  0
    0.0736   -8.1467   -4.4700 H   0  0  0  0  0  0  0  0  0  0  0  0
   -2.0581   -2.8855    3.6268 C   0  0  0  0  0  0  0  0  0  0  0  0
   -1.0853   -3.1093    3.1337 H   0  0  0  0  0  0  0  0  0  0  0  0
   -2.6897   -3.7957    3.5346 H   0  0  0  0  0  0  0  0  0  0  0  0
   -1.8663   -2.6892    4.7031 H   0  0  0  0  0  0  0  0  0  0  0  0
   -4.0977   -1.4486    3.6395 C   0  0  0  0  0  0  0  0  0  0  0  0
   -4.6351   -0.5725    3.2279 H   0  0  0  0  0  0  0  0  0  0  0  0
   -3.9485   -1.2714    4.7271 H   0  0  0  0  0  0  0  0  0  0  0  0
   -4.7411   -2.3492    3.5263 H   0  0  0  0  0  0  0  0  0  0  0  0
   -6.3270    3.9993   -3.3173 C   0  0  0  0  0  0  0  0  0  0  0  0
   -6.0295    5.0068   -2.9534 H   0  0  0  0  0  0  0  0  0  0  0  0
   -6.5467    3.3550   -2.4438 H   0  0  0  0  0  0  0  0  0  0  0  0
   -7.2748    4.1033   -3.8885 H   0  0  0  0  0  0  0  0  0  0  0  0
   -6.6820    1.9400   -5.0084 H   0  0  0  0  0  0  0  0  0  0  0  0
   -5.0362    1.7836   -5.6715 H   0  0  0  0  0  0  0  0  0  0  0  0
   -5.0610    4.3420   -5.4391 C   0  0  0  0  0  0  0  0  0  0  0  0
   -4.2609    3.9684   -6.1156 H   0  0  0  0  0  0  0  0  0  0  0  0
   -4.7745    5.3657   -5.1147 H   0  0  0  0  0  0  0  0  0  0  0  0
   -6.0065    4.4043   -6.0201 H   0  0  0  0  0  0  0  0  0  0  0  0
  1  2  1  0  0  0  0
  2 14  1  0  0  0  0
  2 48  2  0  0  0  0
  3  1  1  0  0  0  0
  3  5  1  0  0  0  0
  4  3  2  0  0  0  0
  6  7  2  0  0  0  0
  6  4  1  0  0  0  0
  7  9  1  0  0  0  0
  8  6  1  0  0  0  0
  9 11  1  0  0  0  0
  9  1  2  0  0  0  0
 10 56  2  0  0  0  0
 10  7  1  0  0  0  0
 12  4  1  0  0  0  0
 12 15  1  0  0  0  0
 13 10  1  0  0  0  0
 16 17  1  0  0  0  0
 17 29  1  0  0  0  0
 17 49  2  0  0  0  0
 18 16  1  0  0  0  0
 18 20  1  0  0  0  0
 19 18  2  0  0  0  0
 21 22  2  0  0  0  0
 21 19  1  0  0  0  0
 22 24  1  0  0  0  0
 23 21  1  0  0  0  0
 24 26  1  0  0  0  0
 24 16  2  0  0  0  0
 25 53  2  0  0  0  0
 25 22  1  0  0  0  0
 27 19  1  0  0  0  0
 27 30  1  0  0  0  0
 28 25  1  0  0  0  0
 31 32  1  0  0  0  0
 32 62  1  0  0  0  0
 32 47  2  0  0  0  0
 33 31  1  0  0  0  0
 33 35  1  0  0  0  0
 34 33  2  0  0  0  0
 36 37  2  0  0  0  0
 36 34  1  0  0  0  0
 37 39  1  0  0  0  0
 38 36  1  0  0  0  0
 39 41  1  0  0  0  0
 39 31  2  0  0  0  0
 40 61  2  0  0  0  0
 40 37  1  0  0  0  0
 42 44  1  0  0  0  0
 42 34  1  0  0  0  0
 43 40  1  0  0  0  0
 45 67  1  0  0  0  0
 45 68  1  0  0  0  0
 46 45  1  0  0  0  0
 46 85  1  0  0  0  0
 46 89  1  0  0  0  0
 47 45  1  0  0  0  0
 48 46  1  0  0  0  0
 50 52  1  0  0  0  0
 50 64  1  0  0  0  0
 50 51  1  0  0  0  0
 51 81  1  0  0  0  0
 51 53  1  0  0  0  0
 52 12  2  0  0  0  0
 54 55  1  0  0  0  0
 54 56  1  0  0  0  0
 55 57  1  0  0  0  0
 55 93  1  0  0  0  0
 57 42  2  0  0  0  0
 58 60  1  0  0  0  0
 58 73  1  0  0  0  0
 59 58  1  0  0  0  0
 59 61  1  0  0  0  0
 60 27  2  0  0  0  0
 63 50  1  0  0  0  0
 65 59  1  0  0  0  0
 66 59  1  0  0  0  0
 69 71  1  0  0  0  0
 69 58  1  0  0  0  0
 70 69  1  0  0  0  0
 72 69  1  0  0  0  0
 73 76  1  0  0  0  0
 73 74  1  0  0  0  0
 75 73  1  0  0  0  0
 77 78  1  0  0  0  0
 77 51  1  0  0  0  0
 79 77  1  0  0  0  0
 80 77  1  0  0  0  0
 81 83  1  0  0  0  0
 81 82  1  0  0  0  0
 84 81  1  0  0  0  0
 85 88  1  0  0  0  0
 86 85  1  0  0  0  0
 87 85  1  0  0  0  0
 89 91  1  0  0  0  0
 90 89  1  0  0  0  0
 92 89  1  0  0  0  0
 93 94  1  0  0  0  0
 93 95  1  0  0  0  0
 96 93  1  0  0  0  0
 97 54  1  0  0  0  0
 98 54  1  0  0  0  0
 99101  1  0  0  0  0
 99 55  1  0  0  0  0
100 99  1  0  0  0  0
102 99  1  0  0  0  0
M  END
