
     RDKit          3D

  0  0  0  0  0  0  0  0  0  0999 V3000
M  V30 BEGIN CTAB
M  V30 COUNTS 108 114 0 0 0
M  V30 BEGIN ATOM
M  V30 1 C -0.9699 -0.9966 4.1534 0
M  V30 2 C -1.9854 -2.0401 4.1754 0
M  V30 3 C -1.3361 0.3495 4.1520 0
M  V30 4 C -0.3682 1.3470 4.1537 0
M  V30 5 H -2.3875 0.5935 4.1603 0
M  V30 6 C 0.9807 0.9911 4.1485 0
M  V30 7 C 1.3605 -0.3458 4.1499 0
M  V30 8 H 1.7176 1.7797 4.1540 0
M  V30 9 C 0.3779 -1.3360 4.1483 0
M  V30 10 C 2.7719 -0.7041 4.1680 0
M  V30 11 H 0.6923 -2.3685 4.1535 0
M  V30 12 C -0.7640 2.7482 4.1758 0
M  V30 13 H 3.4780 0.1277 4.0203 0
M  V30 14 H -1.6178 -3.0675 4.0284 0
M  V30 15 H -1.8378 2.9437 4.0315 0
M  V30 16 C -3.9696 -1.8479 -0.1116 0
M  V30 17 C -4.5875 -1.7449 1.2030 0
M  V30 18 C -3.1935 -2.9580 -0.4455 0
M  V30 19 C -2.6213 -3.0686 -1.7073 0
M  V30 20 H -3.0592 -3.7300 0.2967 0
M  V30 21 C -2.8227 -2.0520 -2.6412 0
M  V30 22 C -3.5934 -0.9401 -2.3227 0
M  V30 23 H -2.3738 -2.1576 -3.6170 0
M  V30 24 C -4.1615 -0.8429 -1.0522 0
M  V30 25 C -3.8152 0.1032 -3.3142 0
M  V30 26 H -4.7602 0.0259 -0.8249 0
M  V30 27 C -1.8327 -4.2437 -2.0509 0
M  V30 28 H -3.2161 0.0229 -4.2344 0
M  V30 29 H -5.0587 -0.7773 1.4348 0
M  V30 30 H -1.6015 -4.9243 -1.2169 0
M  V30 31 C 3.5836 -2.5171 -0.1227 0
M  V30 32 C 3.8067 -3.1053 1.1906 0
M  V30 33 C 4.1554 -1.2890 -0.4557 0
M  V30 34 C 3.9622 -0.7361 -1.7161 0
M  V30 35 H 4.7581 -0.7876 0.2861 0
M  V30 36 C 3.1809 -1.4177 -2.6495 0
M  V30 37 C 2.6049 -2.6420 -2.3319 0
M  V30 38 H 3.0456 -0.9745 -3.6243 0
M  V30 39 C 2.8076 -3.1847 -1.0628 0
M  V30 40 C 1.8108 -3.3543 -3.3233 0
M  V30 41 H 2.3556 -4.1383 -0.8362 0
M  V30 42 C 4.5841 0.5354 -2.0587 0
M  V30 43 H 1.5793 -2.7939 -4.2423 0
M  V30 44 H 3.2048 -3.9974 1.4231 0
M  V30 45 H 5.0598 1.0744 -1.2248 0
M  V30 46 C 0.3850 4.3637 -0.1145 0
M  V30 47 C 0.7863 4.8498 1.1983 0
M  V30 48 C -0.9653 4.2456 -0.4446 0
M  V30 49 C -1.3504 3.8031 -1.7046 0
M  V30 50 H -1.6991 4.5163 0.2991 0
M  V30 51 C -0.3716 3.4680 -2.6405 0
M  V30 52 C 0.9775 3.5806 -2.3258 0
M  V30 53 H -0.6900 3.1303 -3.6148 0
M  V30 54 C 1.3490 4.0263 -1.0571 0
M  V30 55 C 1.9890 3.2498 -3.3198 0
M  V30 56 H 2.4013 4.1112 -0.8327 0
M  V30 57 C -2.7631 3.7063 -2.0445 0
M  V30 58 H 1.6170 2.7704 -4.2386 0
M  V30 59 H 1.8605 4.7745 1.4277 0
M  V30 60 H -3.4663 3.8468 -1.2090 0
M  V30 61 C -4.1667 -2.8338 4.3843 0
M  V30 62 C -5.2140 -2.5680 3.2915 0
M  V30 63 N -3.2028 -1.7817 4.3768 0
M  V30 64 N -4.6028 -2.7132 2.0103 0
M  V30 65 H -5.6527 -1.5689 3.4438 0
M  V30 66 H -5.9975 -3.3274 3.3734 0
M  V30 67 H -3.7160 -3.8261 4.2222 0
M  V30 68 H -4.6702 -2.8156 5.3556 0
M  V30 69 C 4.5493 -2.1981 4.3705 0
M  V30 70 C 4.8384 -3.2379 3.2764 0
M  V30 71 N 3.1565 -1.8881 4.3670 0
M  V30 72 N 4.6551 -2.6353 1.9961 0
M  V30 73 H 4.1922 -4.1170 3.4304 0
M  V30 74 H 5.8878 -3.5378 3.3549 0
M  V30 75 H 5.1837 -1.3123 4.2069 0
M  V30 76 H 4.7876 -2.6440 5.3410 0
M  V30 77 C -0.3596 5.0343 4.3819 0
M  V30 78 C 0.3915 5.8071 3.2862 0
M  V30 79 N 0.0692 3.6733 4.3744 0
M  V30 80 N -0.0428 5.3484 2.0067 0
M  V30 81 H 1.4765 5.6879 3.4362 0
M  V30 82 H 0.1255 6.8654 3.3673 0
M  V30 83 H -1.4447 5.1402 4.2226 0
M  V30 84 H -0.0893 5.4621 5.3521 0
M  V30 85 C -0.6859 -5.6365 -3.5262 0
M  V30 86 C 0.6544 -5.2049 -4.1419 0
M  V30 87 N -1.4632 -4.4762 -3.2336 0
M  V30 88 N 1.4371 -4.5455 -3.1475 0
M  V30 89 H 0.4626 -4.5714 -5.0228 0
M  V30 90 H 1.1974 -6.1037 -4.4495 0
M  V30 91 H -0.4940 -6.2568 -2.6360 0
M  V30 92 H -1.2332 -6.2238 -4.2697 0
M  V30 93 C -4.8418 2.0296 -4.1311 0
M  V30 94 C -4.5457 3.4064 -3.5158 0
M  V30 95 N -4.6596 1.0224 -3.1369 0
M  V30 96 N -3.1517 3.5010 -3.2261 0
M  V30 97 H -5.1771 3.5496 -2.6243 0
M  V30 98 H -4.7831 4.1739 -4.2588 0
M  V30 99 H -4.1985 1.8796 -5.0129 0
M  V30 100 H -5.8921 2.0078 -4.4371 0
M  V30 101 C 5.2130 2.2280 -3.5321 0
M  V30 102 C 4.1677 3.1740 -4.1439 0
M  V30 103 N 4.5978 0.9740 -3.2406 0
M  V30 104 N 3.2079 3.5211 -3.1466 0
M  V30 105 H 3.7127 2.6924 -5.0242 0
M  V30 106 H 4.6740 4.0940 -4.4516 0
M  V30 107 H 5.6561 2.7027 -2.6420 0
M  V30 108 H 5.9938 2.0492 -4.2776 0
M  V30 END ATOM
M  V30 BEGIN BOND
M  V30 1 1 1 2
M  V30 2 1 1 3
M  V30 3 1 2 14
M  V30 4 2 3 4
M  V30 5 1 3 5
M  V30 6 1 4 6
M  V30 7 1 4 12
M  V30 8 2 6 7
M  V30 9 1 6 8
M  V30 10 1 7 9
M  V30 11 1 7 10
M  V30 12 2 9 1
M  V30 13 1 9 11
M  V30 14 1 10 13
M  V30 15 1 12 15
M  V30 16 1 16 17
M  V30 17 1 16 18
M  V30 18 1 17 29
M  V30 19 2 18 19
M  V30 20 1 18 20
M  V30 21 1 19 21
M  V30 22 1 19 27
M  V30 23 2 21 22
M  V30 24 1 21 23
M  V30 25 1 22 24
M  V30 26 1 22 25
M  V30 27 2 24 16
M  V30 28 1 24 26
M  V30 29 1 25 28
M  V30 30 1 27 30
M  V30 31 1 31 32
M  V30 32 1 31 33
M  V30 33 1 32 44
M  V30 34 2 33 34
M  V30 35 1 33 35
M  V30 36 1 34 36
M  V30 37 1 34 42
M  V30 38 2 36 37
M  V30 39 1 36 38
M  V30 40 1 37 39
M  V30 41 1 37 40
M  V30 42 2 39 31
M  V30 43 1 39 41
M  V30 44 1 40 43
M  V30 45 1 42 45
M  V30 46 1 46 47
M  V30 47 1 46 48
M  V30 48 1 47 59
M  V30 49 2 48 49
M  V30 50 1 48 50
M  V30 51 1 49 51
M  V30 52 1 49 57
M  V30 53 2 51 52
M  V30 54 1 51 53
M  V30 55 1 52 54
M  V30 56 1 52 55
M  V30 57 2 54 46
M  V30 58 1 54 56
M  V30 59 1 55 58
M  V30 60 1 57 60
M  V30 61 1 61 67
M  V30 62 1 61 68
M  V30 63 1 62 61
M  V30 64 1 62 64
M  V30 65 1 62 65
M  V30 66 1 62 66
M  V30 67 1 63 61
M  V30 68 1 69 75
M  V30 69 1 69 76
M  V30 70 1 70 69
M  V30 71 1 70 72
M  V30 72 1 70 73
M  V30 73 1 70 74
M  V30 74 1 71 69
M  V30 75 1 77 83
M  V30 76 1 77 84
M  V30 77 1 78 77
M  V30 78 1 78 80
M  V30 79 1 78 81
M  V30 80 1 78 82
M  V30 81 1 79 77
M  V30 82 1 85 91
M  V30 83 1 85 92
M  V30 84 1 86 85
M  V30 85 1 86 88
M  V30 86 1 86 89
M  V30 87 1 86 90
M  V30 88 1 87 85
M  V30 89 1 93 99
M  V30 90 1 93 100
M  V30 91 1 94 93
M  V30 92 1 94 96
M  V30 93 1 94 97
M  V30 94 1 94 98
M  V30 95 1 95 93
M  V30 96 1 101 107
M  V30 97 1 101 108
M  V30 98 1 102 101
M  V30 99 1 102 104
M  V30 100 1 102 105
M  V30 101 1 102 106
M  V30 102 1 103 101
M  V30 103 2 2 63
M  V30 104 2 17 64
M  V30 105 2 10 71
M  V30 106 2 32 72
M  V30 107 2 12 79
M  V30 108 2 47 80
M  V30 109 2 27 87
M  V30 110 2 40 88
M  V30 111 2 25 95
M  V30 112 2 57 96
M  V30 113 2 42 103
M  V30 114 2 55 104
M  V30 END BOND
M  V30 END CTAB
M  END

$$$$
