
     RDKit          3D

  0  0  0  0  0  0  0  0  0  0999 V3000
M  V30 BEGIN CTAB
M  V30 COUNTS 108 114 0 0 0
M  V30 BEGIN ATOM
M  V30 1 C -1.2144 -0.7109 11.4189 0
M  V30 2 C -2.4994 -1.4431 11.4188 0
M  V30 3 C -1.2180 0.6916 11.4188 0
M  V30 4 C -0.0085 1.4071 11.4188 0
M  V30 5 H -2.1622 1.2237 11.4188 0
M  V30 6 C 1.2079 0.7090 11.4188 0
M  V30 7 C 1.2229 -0.6963 11.4188 0
M  V30 8 H 2.1408 1.2606 11.4188 0
M  V30 9 C 0.0100 -1.4006 11.4188 0
M  V30 10 C 2.4995 -1.4431 11.4188 0
M  V30 11 H 0.0213 -2.4843 11.4189 0
M  V30 12 C -0.0000 2.8861 11.4188 0
M  V30 13 H 2.4917 -2.5286 11.4188 0
M  V30 14 H -3.4358 -0.8936 11.4189 0
M  V30 15 H 0.9440 3.4223 11.4188 0
M  V30 16 C -9.7339 -5.6101 -2.4796 0
M  V30 17 C -10.1566 -5.8639 -1.0852 0
M  V30 18 C -8.9242 -6.5471 -3.1378 0
M  V30 19 C -8.5110 -6.3258 -4.4627 0
M  V30 20 H -8.6169 -7.4470 -2.6177 0
M  V30 21 C -8.9141 -5.1581 -5.1267 0
M  V30 22 C -9.7254 -4.2127 -4.4765 0
M  V30 23 H -8.5956 -4.9873 -6.1485 0
M  V30 24 C -10.1320 -4.4434 -3.1542 0
M  V30 25 C -10.1566 -2.9778 -5.1668 0
M  V30 26 H -10.7578 -3.7144 -2.6525 0
M  V30 27 C -7.6571 -7.3070 -5.1668 0
M  V30 28 H -10.7833 -2.2585 -4.6488 0
M  V30 29 H -9.8394 -6.7708 -0.5797 0
M  V30 30 H -7.3476 -7.1194 -6.1903 0
M  V30 31 C 9.7255 -5.6248 -2.4796 0
M  V30 32 C 10.1566 -5.8639 -1.0852 0
M  V30 33 C 10.1321 -4.4550 -3.1378 0
M  V30 34 C 9.7338 -4.2078 -4.4627 0
M  V30 35 H 10.7578 -3.7390 -2.6177 0
M  V30 36 C 8.9241 -5.1407 -5.1267 0
M  V30 37 C 8.5110 -6.3161 -4.4765 0
M  V30 38 H 8.6170 -4.9504 -6.1485 0
M  V30 39 C 8.9141 -6.5529 -3.1542 0
M  V30 40 C 7.6571 -7.3070 -5.1668 0
M  V30 41 H 8.5957 -7.4593 -2.6525 0
M  V30 42 C 10.1566 -2.9778 -5.1668 0
M  V30 43 H 7.3476 -8.2094 -4.6488 0
M  V30 44 H 10.7834 -5.1357 -0.5797 0
M  V30 45 H 9.8394 -2.8035 -6.1903 0
M  V30 46 C 0.0085 11.2349 -2.4796 0
M  V30 47 C 0.0000 11.7278 -1.0852 0
M  V30 48 C -1.2079 11.0021 -3.1378 0
M  V30 49 C -1.2228 10.5337 -4.4627 0
M  V30 50 H -2.1408 11.1860 -2.6177 0
M  V30 51 C -0.0100 10.2989 -5.1267 0
M  V30 52 C 1.2144 10.5288 -4.4765 0
M  V30 53 H -0.0213 9.9377 -6.1485 0
M  V30 54 C 1.2179 10.9963 -3.1542 0
M  V30 55 C 2.4995 10.2847 -5.1668 0
M  V30 56 H 2.1621 11.1737 -2.6525 0
M  V30 57 C -2.4995 10.2848 -5.1668 0
M  V30 58 H 3.4357 10.4679 -4.6488 0
M  V30 59 H -0.9440 11.9065 -0.5797 0
M  V30 60 H -2.4918 9.9229 -6.1903 0
M  V30 61 C -6.6200 -4.2498 6.3786 0
M  V30 62 C -7.6620 -3.9969 5.2822 0
M  V30 63 N -5.5814 -3.2224 6.3860 0
M  V30 64 N -7.0746 -4.0845 3.9476 0
M  V30 65 H -8.1377 -3.0013 5.4265 0
M  V30 66 H -8.4505 -4.7756 5.3739 0
M  V30 67 H -6.1619 -5.2553 6.2473 0
M  V30 68 H -7.1434 -4.2315 7.3595 0
M  V30 69 C 6.9904 -3.6082 6.3786 0
M  V30 70 C 7.2924 -4.6371 5.2822 0
M  V30 71 N 5.5814 -3.2224 6.3860 0
M  V30 72 N 7.0746 -4.0845 3.9476 0
M  V30 73 H 6.6680 -5.5468 5.4265 0
M  V30 74 H 8.3611 -4.9306 5.3739 0
M  V30 75 H 7.6322 -2.7087 6.2473 0
M  V30 76 H 7.2363 -4.0706 7.3595 0
M  V30 77 C -0.3704 7.8579 6.3786 0
M  V30 78 C 0.3696 8.6340 5.2822 0
M  V30 79 N -0.0000 6.4449 6.3860 0
M  V30 80 N -0.0000 8.1691 3.9476 0
M  V30 81 H 1.4696 8.5481 5.4265 0
M  V30 82 H 0.0894 9.7062 5.3739 0
M  V30 83 H -1.4703 7.9641 6.2473 0
M  V30 84 H -0.0929 8.3021 7.3595 0
M  V30 85 C -0.6714 -8.4594 -5.5280 0
M  V30 86 C 0.6719 -8.0327 -6.1326 0
M  V30 87 N -1.4932 -7.3070 -5.1668 0
M  V30 88 N 1.4932 -7.3070 -5.1668 0
M  V30 89 H 0.5045 -7.4083 -7.0384 0
M  V30 90 H 1.2161 -8.9525 -6.4399 0
M  V30 91 H -0.5029 -9.1033 -4.6363 0
M  V30 92 H -1.2158 -9.0577 -6.2910 0
M  V30 93 C -7.2914 3.4344 -6.1329 0
M  V30 94 C -6.9901 4.8116 -5.5290 0
M  V30 95 N -7.0746 2.3603 -5.1668 0
M  V30 96 N -5.5814 4.9466 -5.1668 0
M  V30 97 H -7.6332 4.9896 -4.6385 0
M  V30 98 H -7.2345 5.5810 -6.2938 0
M  V30 99 H -6.6648 3.2673 -7.0372 0
M  V30 100 H -8.3592 3.4223 -6.4427 0
M  V30 101 C 7.6618 3.6483 -5.5280 0
M  V30 102 C 6.6205 4.5983 -6.1326 0
M  V30 103 N 7.0746 2.3603 -5.1668 0
M  V30 104 N 5.5814 4.9466 -5.1668 0
M  V30 105 H 6.1635 4.1411 -7.0384 0
M  V30 106 H 7.1450 5.5294 -6.4399 0
M  V30 107 H 8.1351 4.1161 -4.6363 0
M  V30 108 H 8.4521 3.4759 -6.2910 0
M  V30 END ATOM
M  V30 BEGIN BOND
M  V30 1 1 1 2
M  V30 2 1 1 3
M  V30 3 1 2 14
M  V30 4 2 3 4
M  V30 5 1 3 5
M  V30 6 1 4 6
M  V30 7 1 4 12
M  V30 8 2 6 7
M  V30 9 1 6 8
M  V30 10 1 7 9
M  V30 11 1 7 10
M  V30 12 2 9 1
M  V30 13 1 9 11
M  V30 14 1 10 13
M  V30 15 1 12 15
M  V30 16 1 16 17
M  V30 17 1 16 18
M  V30 18 1 17 29
M  V30 19 2 18 19
M  V30 20 1 18 20
M  V30 21 1 19 21
M  V30 22 1 19 27
M  V30 23 2 21 22
M  V30 24 1 21 23
M  V30 25 1 22 24
M  V30 26 1 22 25
M  V30 27 2 24 16
M  V30 28 1 24 26
M  V30 29 1 25 28
M  V30 30 1 27 30
M  V30 31 1 31 32
M  V30 32 1 31 33
M  V30 33 1 32 44
M  V30 34 2 33 34
M  V30 35 1 33 35
M  V30 36 1 34 36
M  V30 37 1 34 42
M  V30 38 2 36 37
M  V30 39 1 36 38
M  V30 40 1 37 39
M  V30 41 1 37 40
M  V30 42 2 39 31
M  V30 43 1 39 41
M  V30 44 1 40 43
M  V30 45 1 42 45
M  V30 46 1 46 47
M  V30 47 1 46 48
M  V30 48 1 47 59
M  V30 49 2 48 49
M  V30 50 1 48 50
M  V30 51 1 49 51
M  V30 52 1 49 57
M  V30 53 2 51 52
M  V30 54 1 51 53
M  V30 55 1 52 54
M  V30 56 1 52 55
M  V30 57 2 54 46
M  V30 58 1 54 56
M  V30 59 1 55 58
M  V30 60 1 57 60
M  V30 61 1 61 67
M  V30 62 1 61 68
M  V30 63 1 62 61
M  V30 64 1 62 64
M  V30 65 1 62 65
M  V30 66 1 62 66
M  V30 67 1 63 61
M  V30 68 1 69 75
M  V30 69 1 69 76
M  V30 70 1 70 69
M  V30 71 1 70 72
M  V30 72 1 70 73
M  V30 73 1 70 74
M  V30 74 1 71 69
M  V30 75 1 77 83
M  V30 76 1 77 84
M  V30 77 1 78 77
M  V30 78 1 78 80
M  V30 79 1 78 81
M  V30 80 1 78 82
M  V30 81 1 79 77
M  V30 82 1 85 91
M  V30 83 1 85 92
M  V30 84 1 86 85
M  V30 85 1 86 88
M  V30 86 1 86 89
M  V30 87 1 86 90
M  V30 88 1 87 85
M  V30 89 1 93 99
M  V30 90 1 93 100
M  V30 91 1 94 93
M  V30 92 1 94 96
M  V30 93 1 94 97
M  V30 94 1 94 98
M  V30 95 1 95 93
M  V30 96 1 101 107
M  V30 97 1 101 108
M  V30 98 1 102 101
M  V30 99 1 102 104
M  V30 100 1 102 105
M  V30 101 1 102 106
M  V30 102 1 103 101
M  V30 103 2 2 63
M  V30 104 2 17 64
M  V30 105 2 10 71
M  V30 106 2 32 72
M  V30 107 2 12 79
M  V30 108 2 47 80
M  V30 109 2 27 87
M  V30 110 2 40 88
M  V30 111 2 25 95
M  V30 112 2 57 96
M  V30 113 2 42 103
M  V30 114 2 55 104
M  V30 END BOND
M  V30 END CTAB
M  END

$$$$
