
     RDKit          3D

  0  0  0  0  0  0  0  0  0  0999 V3000
M  V30 BEGIN CTAB
M  V30 COUNTS 168 180 0 0 0
M  V30 BEGIN ATOM
M  V30 1 C -1.2144 -0.7109 11.4189 0
M  V30 2 C -2.4994 -1.4431 11.4188 0
M  V30 3 C -1.2180 0.6916 11.4188 0
M  V30 4 C -0.0085 1.4071 11.4188 0
M  V30 5 H -2.1622 1.2237 11.4188 0
M  V30 6 C 1.2079 0.7090 11.4188 0
M  V30 7 C 1.2229 -0.6963 11.4188 0
M  V30 8 H 2.1408 1.2606 11.4188 0
M  V30 9 C 0.0100 -1.4006 11.4188 0
M  V30 10 C 2.4995 -1.4431 11.4188 0
M  V30 11 H 0.0213 -2.4843 11.4189 0
M  V30 12 C -0.0000 2.8861 11.4188 0
M  V30 13 H 2.4917 -2.5286 11.4188 0
M  V30 14 H -3.4358 -0.8936 11.4189 0
M  V30 15 H 0.9440 3.4223 11.4188 0
M  V30 16 C -9.7339 -5.6101 -2.4796 0
M  V30 17 C -10.1566 -5.8639 -1.0852 0
M  V30 18 C -8.9242 -6.5471 -3.1378 0
M  V30 19 C -8.5110 -6.3258 -4.4627 0
M  V30 20 H -8.6169 -7.4470 -2.6177 0
M  V30 21 C -8.9141 -5.1581 -5.1267 0
M  V30 22 C -9.7254 -4.2127 -4.4765 0
M  V30 23 H -8.5956 -4.9873 -6.1485 0
M  V30 24 C -10.1320 -4.4434 -3.1542 0
M  V30 25 C -10.1566 -2.9778 -5.1668 0
M  V30 26 H -10.7578 -3.7144 -2.6525 0
M  V30 27 C -7.6571 -7.3070 -5.1668 0
M  V30 28 H -10.7833 -2.2585 -4.6488 0
M  V30 29 H -9.8394 -6.7708 -0.5797 0
M  V30 30 H -7.3476 -7.1194 -6.1903 0
M  V30 31 C 9.7255 -5.6248 -2.4796 0
M  V30 32 C 10.1566 -5.8639 -1.0852 0
M  V30 33 C 10.1321 -4.4550 -3.1378 0
M  V30 34 C 9.7338 -4.2078 -4.4627 0
M  V30 35 H 10.7578 -3.7390 -2.6177 0
M  V30 36 C 8.9241 -5.1407 -5.1267 0
M  V30 37 C 8.5110 -6.3161 -4.4765 0
M  V30 38 H 8.6170 -4.9504 -6.1485 0
M  V30 39 C 8.9141 -6.5529 -3.1542 0
M  V30 40 C 7.6571 -7.3070 -5.1668 0
M  V30 41 H 8.5957 -7.4593 -2.6525 0
M  V30 42 C 10.1566 -2.9778 -5.1668 0
M  V30 43 H 7.3476 -8.2094 -4.6488 0
M  V30 44 H 10.7834 -5.1357 -0.5797 0
M  V30 45 H 9.8394 -2.8035 -6.1903 0
M  V30 46 C 0.0085 11.2349 -2.4796 0
M  V30 47 C 0.0000 11.7278 -1.0852 0
M  V30 48 C -1.2079 11.0021 -3.1378 0
M  V30 49 C -1.2228 10.5337 -4.4627 0
M  V30 50 H -2.1408 11.1860 -2.6177 0
M  V30 51 C -0.0100 10.2989 -5.1267 0
M  V30 52 C 1.2144 10.5288 -4.4765 0
M  V30 53 H -0.0213 9.9377 -6.1485 0
M  V30 54 C 1.2179 10.9963 -3.1542 0
M  V30 55 C 2.4995 10.2847 -5.1668 0
M  V30 56 H 2.1621 11.1737 -2.6525 0
M  V30 57 C -2.4995 10.2848 -5.1668 0
M  V30 58 H 3.4357 10.4679 -4.6488 0
M  V30 59 H -0.9440 11.9065 -0.5797 0
M  V30 60 H -2.4918 9.9229 -6.1903 0
M  V30 61 C -6.9981 -3.6544 6.4152 0
M  V30 62 C -7.3041 -4.6741 5.2871 0
M  V30 63 N -5.5972 -3.2315 6.3603 0
M  V30 64 N -7.0589 -4.0754 3.9733 0
M  V30 65 C -8.7667 -5.1611 5.3877 0
M  V30 66 H -6.6281 -5.5510 5.4068 0
M  V30 67 C -9.0398 -5.7786 6.7643 0
M  V30 68 H -8.9685 -5.9197 4.6009 0
M  V30 69 H -9.4582 -4.3043 5.2300 0
M  V30 70 C -8.7491 -4.7593 7.8711 0
M  V30 71 H -8.3952 -6.6738 6.9055 0
M  V30 72 H -10.1007 -6.1022 6.8242 0
M  V30 73 C -7.2913 -4.2892 7.7900 0
M  V30 74 H -8.9380 -5.2223 8.8633 0
M  V30 75 H -9.4281 -3.8853 7.7608 0
M  V30 76 H -6.6162 -5.1584 7.9532 0
M  V30 77 H -7.1032 -3.5485 8.5969 0
M  V30 78 H -7.6531 -2.7616 6.2897 0
M  V30 79 C 6.6639 -4.2333 6.4152 0
M  V30 80 C 7.7000 -3.9885 5.2871 0
M  V30 81 N 5.5972 -3.2315 6.3603 0
M  V30 82 N 7.0589 -4.0754 3.9733 0
M  V30 83 C 8.8530 -5.0116 5.3877 0
M  V30 84 H 8.1214 -2.9646 5.4068 0
M  V30 85 C 9.5244 -4.9394 6.7643 0
M  V30 86 H 9.6109 -4.8071 4.6009 0
M  V30 87 H 8.4567 -6.0389 5.2300 0
M  V30 88 C 8.4962 -5.1973 7.8711 0
M  V30 89 H 9.9773 -3.9336 6.9055 0
M  V30 90 H 10.3350 -5.6964 6.8242 0
M  V30 91 C 7.3602 -4.1699 7.7900 0
M  V30 92 H 8.9916 -5.1294 8.8633 0
M  V30 93 H 8.0788 -6.2223 7.7608 0
M  V30 94 H 7.7754 -3.1506 7.9532 0
M  V30 95 H 6.6248 -4.3773 8.5969 0
M  V30 96 H 6.2182 -5.2469 6.2897 0
M  V30 97 C 0.3342 7.8878 6.4152 0
M  V30 98 C -0.3959 8.6626 5.2871 0
M  V30 99 N -0.0000 6.4631 6.3603 0
M  V30 100 N -0.0000 8.1509 3.9733 0
M  V30 101 C -0.0863 10.1727 5.3877 0
M  V30 102 H -1.4933 8.5156 5.4068 0
M  V30 103 C -0.4846 10.7180 6.7643 0
M  V30 104 H -0.6424 10.7268 4.6009 0
M  V30 105 H 1.0015 10.3432 5.2300 0
M  V30 106 C 0.2528 9.9566 7.8711 0
M  V30 107 H -1.5821 10.6074 6.9055 0
M  V30 108 H -0.2343 11.7986 6.8242 0
M  V30 109 C -0.0689 8.4591 7.7900 0
M  V30 110 H -0.0537 10.3517 8.8633 0
M  V30 111 H 1.3493 10.1077 7.7608 0
M  V30 112 H -1.1592 8.3090 7.9532 0
M  V30 113 H 0.4785 7.9259 8.5969 0
M  V30 114 H 1.4349 8.0086 6.2897 0
M  V30 115 C -0.6840 -8.0897 -6.1296 0
M  V30 116 C 0.6844 -8.4960 -5.5227 0
M  V30 117 N -1.4617 -7.3070 -5.1668 0
M  V30 118 N 1.4617 -7.3070 -5.1668 0
M  V30 119 C 1.4741 -9.3714 -6.5209 0
M  V30 120 H 0.5018 -9.0880 -4.5973 0
M  V30 121 C 0.6650 -10.6139 -6.9117 0
M  V30 122 H 2.4365 -9.6910 -6.0658 0
M  V30 123 H 1.7013 -8.7827 -7.4369 0
M  V30 124 C -0.6783 -10.2022 -7.5237 0
M  V30 125 H 0.4859 -11.2403 -6.0104 0
M  V30 126 H 1.2400 -11.2180 -7.6453 0
M  V30 127 C -1.4767 -9.3514 -6.5281 0
M  V30 128 H -1.2603 -11.1103 -7.7904 0
M  V30 129 H -0.5010 -9.6179 -8.4534 0
M  V30 130 H -1.6966 -9.9578 -5.6215 0
M  V30 131 H -2.4433 -9.0603 -6.9926 0
M  V30 132 H -0.5118 -7.4756 -7.0434 0
M  V30 133 C -7.6821 3.6455 -5.5838 0
M  V30 134 C -6.6197 4.6122 -6.1692 0
M  V30 135 N -7.0589 2.3876 -5.1668 0
M  V30 136 N -5.5972 4.9194 -5.1668 0
M  V30 137 C -7.2926 5.9125 -6.6618 0
M  V30 138 H -6.1263 4.1165 -7.0358 0
M  V30 139 C -8.3748 5.6031 -7.7029 0
M  V30 140 H -6.5320 6.5847 -7.1148 0
M  V30 141 H -7.7569 6.4430 -5.8015 0
M  V30 142 C -9.4274 4.6597 -7.1108 0
M  V30 143 H -7.9094 5.1275 -8.5939 0
M  V30 144 H -8.8608 6.5476 -8.0279 0
M  V30 145 C -8.7680 3.3571 -6.6406 0
M  V30 146 H -10.1983 4.4327 -7.8781 0
M  V30 147 H -9.9291 5.1541 -6.2500 0
M  V30 148 H -8.3128 2.8404 -7.5144 0
M  V30 149 H -9.5466 2.6904 -6.2112 0
M  V30 150 H -8.1648 4.1230 -4.7002 0
M  V30 151 C 7.3479 3.4525 -6.1296 0
M  V30 152 C 7.0156 4.8407 -5.5227 0
M  V30 153 N 7.0589 2.3876 -5.1668 0
M  V30 154 N 5.5972 4.9194 -5.1668 0
M  V30 155 C 7.3788 5.9624 -6.5209 0
M  V30 156 H 7.6195 4.9786 -4.5973 0
M  V30 157 C 8.8594 5.8828 -6.9117 0
M  V30 158 H 7.1744 6.9556 -6.0658 0
M  V30 159 H 6.7554 5.8648 -7.4369 0
M  V30 160 C 9.1746 4.5137 -7.5237 0
M  V30 161 H 9.4914 6.0409 -6.0104 0
M  V30 162 H 9.0951 6.6829 -7.6453 0
M  V30 163 C 8.8369 3.3969 -6.5281 0
M  V30 164 H 10.2520 4.4637 -7.7904 0
M  V30 165 H 8.5799 4.3751 -8.4534 0
M  V30 166 H 9.4720 3.5096 -5.6215 0
M  V30 167 H 9.0681 2.4142 -6.9926 0
M  V30 168 H 6.7300 3.2946 -7.0434 0
M  V30 END ATOM
M  V30 BEGIN BOND
M  V30 1 1 1 2
M  V30 2 1 1 3
M  V30 3 1 2 14
M  V30 4 2 3 4
M  V30 5 1 3 5
M  V30 6 1 4 6
M  V30 7 1 4 12
M  V30 8 2 6 7
M  V30 9 1 6 8
M  V30 10 1 7 9
M  V30 11 1 7 10
M  V30 12 2 9 1
M  V30 13 1 9 11
M  V30 14 1 10 13
M  V30 15 1 12 15
M  V30 16 1 16 17
M  V30 17 1 16 18
M  V30 18 1 17 29
M  V30 19 2 18 19
M  V30 20 1 18 20
M  V30 21 1 19 21
M  V30 22 1 19 27
M  V30 23 2 21 22
M  V30 24 1 21 23
M  V30 25 1 22 24
M  V30 26 1 22 25
M  V30 27 2 24 16
M  V30 28 1 24 26
M  V30 29 1 25 28
M  V30 30 1 27 30
M  V30 31 1 31 32
M  V30 32 1 31 33
M  V30 33 1 32 44
M  V30 34 2 33 34
M  V30 35 1 33 35
M  V30 36 1 34 36
M  V30 37 1 34 42
M  V30 38 2 36 37
M  V30 39 1 36 38
M  V30 40 1 37 39
M  V30 41 1 37 40
M  V30 42 2 39 31
M  V30 43 1 39 41
M  V30 44 1 40 43
M  V30 45 1 42 45
M  V30 46 1 46 47
M  V30 47 1 46 48
M  V30 48 1 47 59
M  V30 49 2 48 49
M  V30 50 1 48 50
M  V30 51 1 49 51
M  V30 52 1 49 57
M  V30 53 2 51 52
M  V30 54 1 51 53
M  V30 55 1 52 54
M  V30 56 1 52 55
M  V30 57 2 54 46
M  V30 58 1 54 56
M  V30 59 1 55 58
M  V30 60 1 57 60
M  V30 61 1 61 78
M  V30 62 1 61 63
M  V30 63 1 62 66
M  V30 64 1 62 64
M  V30 65 1 62 61
M  V30 66 1 65 62
M  V30 67 1 67 71
M  V30 68 1 67 65
M  V30 69 1 67 70
M  V30 70 1 68 65
M  V30 71 1 69 65
M  V30 72 1 70 73
M  V30 73 1 72 67
M  V30 74 1 73 76
M  V30 75 1 73 61
M  V30 76 1 73 77
M  V30 77 1 74 70
M  V30 78 1 75 70
M  V30 79 1 79 96
M  V30 80 1 79 81
M  V30 81 1 80 84
M  V30 82 1 80 82
M  V30 83 1 80 79
M  V30 84 1 83 80
M  V30 85 1 85 89
M  V30 86 1 85 83
M  V30 87 1 85 88
M  V30 88 1 86 83
M  V30 89 1 87 83
M  V30 90 1 88 91
M  V30 91 1 90 85
M  V30 92 1 91 94
M  V30 93 1 91 79
M  V30 94 1 91 95
M  V30 95 1 92 88
M  V30 96 1 93 88
M  V30 97 1 97 114
M  V30 98 1 97 99
M  V30 99 1 98 102
M  V30 100 1 98 100
M  V30 101 1 98 97
M  V30 102 1 101 98
M  V30 103 1 103 107
M  V30 104 1 103 101
M  V30 105 1 103 106
M  V30 106 1 104 101
M  V30 107 1 105 101
M  V30 108 1 106 109
M  V30 109 1 108 103
M  V30 110 1 109 112
M  V30 111 1 109 97
M  V30 112 1 109 113
M  V30 113 1 110 106
M  V30 114 1 111 106
M  V30 115 1 115 132
M  V30 116 1 115 117
M  V30 117 1 116 120
M  V30 118 1 116 118
M  V30 119 1 116 115
M  V30 120 1 119 116
M  V30 121 1 121 125
M  V30 122 1 121 119
M  V30 123 1 121 124
M  V30 124 1 122 119
M  V30 125 1 123 119
M  V30 126 1 124 127
M  V30 127 1 126 121
M  V30 128 1 127 130
M  V30 129 1 127 115
M  V30 130 1 127 131
M  V30 131 1 128 124
M  V30 132 1 129 124
M  V30 133 1 133 150
M  V30 134 1 133 135
M  V30 135 1 134 138
M  V30 136 1 134 136
M  V30 137 1 134 133
M  V30 138 1 137 134
M  V30 139 1 139 143
M  V30 140 1 139 137
M  V30 141 1 139 142
M  V30 142 1 140 137
M  V30 143 1 141 137
M  V30 144 1 142 145
M  V30 145 1 144 139
M  V30 146 1 145 148
M  V30 147 1 145 133
M  V30 148 1 145 149
M  V30 149 1 146 142
M  V30 150 1 147 142
M  V30 151 1 151 168
M  V30 152 1 151 153
M  V30 153 1 152 156
M  V30 154 1 152 154
M  V30 155 1 152 151
M  V30 156 1 155 152
M  V30 157 1 157 161
M  V30 158 1 157 155
M  V30 159 1 157 160
M  V30 160 1 158 155
M  V30 161 1 159 155
M  V30 162 1 160 163
M  V30 163 1 162 157
M  V30 164 1 163 166
M  V30 165 1 163 151
M  V30 166 1 163 167
M  V30 167 1 164 160
M  V30 168 1 165 160
M  V30 169 2 2 63
M  V30 170 2 17 64
M  V30 171 2 10 81
M  V30 172 2 32 82
M  V30 173 2 12 99
M  V30 174 2 47 100
M  V30 175 2 27 117
M  V30 176 2 40 118
M  V30 177 2 25 135
M  V30 178 2 57 136
M  V30 179 2 42 153
M  V30 180 2 55 154
M  V30 END BOND
M  V30 END CTAB
M  END

$$$$
