
     RDKit          3D

  0  0  0  0  0  0  0  0  0  0999 V3000
M  V30 BEGIN CTAB
M  V30 COUNTS 168 180 0 0 0
M  V30 BEGIN ATOM
M  V30 1 C -1.3617 -0.3363 4.0772 0
M  V30 2 C -2.7717 -0.6980 4.1104 0
M  V30 3 C -0.9850 1.0014 4.0690 0
M  V30 4 C 0.3628 1.3606 4.0764 0
M  V30 5 H -1.7234 1.7885 4.0711 0
M  V30 6 C 1.3330 0.3656 4.0819 0
M  V30 7 C 0.9701 -0.9813 4.0902 0
M  V30 8 H 2.3838 0.6116 4.0942 0
M  V30 9 C -0.3767 -1.3240 4.0827 0
M  V30 10 C 1.9883 -2.0211 4.1370 0
M  V30 11 H -0.6892 -2.3570 4.0953 0
M  V30 12 C 0.7540 2.7628 4.1088 0
M  V30 13 H 1.6278 -3.0508 3.9877 0
M  V30 14 H -3.4816 0.1284 3.9507 0
M  V30 15 H 1.8262 2.9640 3.9596 0
M  V30 16 C -3.5094 -2.4793 -0.0849 0
M  V30 17 C -3.7494 -3.0691 1.2245 0
M  V30 18 C -2.7304 -3.1513 -1.0193 0
M  V30 19 C -2.5250 -2.6160 -2.2909 0
M  V30 20 H -2.2809 -4.1048 -0.7878 0
M  V30 21 C -3.0996 -1.3931 -2.6161 0
M  V30 22 C -3.8839 -0.7070 -1.6887 0
M  V30 23 H -2.9645 -0.9559 -3.5935 0
M  V30 24 C -4.0799 -1.2528 -0.4257 0
M  V30 25 C -4.5174 0.5543 -2.0464 0
M  V30 26 H -4.6866 -0.7492 0.3113 0
M  V30 27 C -1.7421 -3.3422 -3.2807 0
M  V30 28 H -4.9882 1.1055 -1.2176 0
M  V30 29 H -3.1434 -3.9557 1.4677 0
M  V30 30 H -1.4986 -2.7868 -4.1997 0
M  V30 31 C 3.9091 -1.8151 -0.0566 0
M  V30 32 C 4.5371 -1.7139 1.2531 0
M  V30 33 C 4.1037 -0.8146 -1.0014 0
M  V30 34 C 3.5401 -0.9180 -2.2731 0
M  V30 35 H 4.7043 0.0538 -0.7780 0
M  V30 36 C 2.7691 -2.0305 -2.5881 0
M  V30 37 C 2.5649 -3.0427 -1.6502 0
M  V30 38 H 2.3250 -2.1426 -3.5653 0
M  V30 39 C 3.1329 -2.9260 -0.3871 0
M  V30 40 C 1.7901 -4.2259 -1.9967 0
M  V30 41 H 2.9984 -3.6953 0.3579 0
M  V30 42 C 3.7799 0.1125 -3.2735 0
M  V30 43 H 1.5466 -4.9002 -1.1611 0
M  V30 44 H 5.0016 -0.7433 1.4868 0
M  V30 45 H 3.1792 0.0360 -4.1931 0
M  V30 46 C -0.3760 4.2769 -0.1037 0
M  V30 47 C -0.7809 4.7842 1.1997 0
M  V30 48 C -1.3373 3.9348 -1.0472 0
M  V30 49 C -0.9626 3.4847 -2.3132 0
M  V30 50 H -2.3902 4.0229 -0.8274 0
M  V30 51 C 0.3871 3.3700 -2.6235 0
M  V30 52 C 1.3634 3.7095 -1.6867 0
M  V30 53 H 0.7087 3.0308 -3.5963 0
M  V30 54 C 0.9751 4.1566 -0.4294 0
M  V30 55 C 2.7763 3.6265 -2.0289 0
M  V30 56 H 1.7065 4.4330 0.3145 0
M  V30 57 C -1.9723 3.1661 -3.3128 0
M  V30 58 H 3.4800 3.7615 -1.1928 0
M  V30 59 H -1.8542 4.7030 1.4319 0
M  V30 60 H -1.6033 2.6740 -4.2260 0
M  V30 61 C -4.5443 -2.1913 4.3828 0
M  V30 62 C -4.8392 -3.2296 3.2814 0
M  V30 63 N -3.1507 -1.8786 4.3373 0
M  V30 64 N -4.6179 -2.6088 2.0135 0
M  V30 65 C -6.3021 -3.6737 3.3641 0
M  V30 66 H -4.1721 -4.0966 3.4387 0
M  V30 67 C -6.6207 -4.2546 4.7363 0
M  V30 68 H -6.4896 -4.4137 2.5831 0
M  V30 69 H -6.9361 -2.8081 3.1644 0
M  V30 70 C -6.3269 -3.2300 5.8268 0
M  V30 71 H -6.0128 -5.1468 4.9036 0
M  V30 72 H -7.6707 -4.5516 4.7737 0
M  V30 73 C -4.8717 -2.7837 5.7562 0
M  V30 74 H -6.5311 -3.6594 6.8097 0
M  V30 75 H -6.9798 -2.3639 5.6961 0
M  V30 76 H -4.2080 -3.6320 5.9318 0
M  V30 77 H -4.6651 -2.0324 6.5214 0
M  V30 78 H -5.1736 -1.3025 4.1950 0
M  V30 79 C 4.1671 -2.8067 4.4228 0
M  V30 80 C 5.2162 -2.5551 3.3208 0
M  V30 81 N 3.1997 -1.7567 4.3637 0
M  V30 82 N 4.5706 -2.6876 2.0529 0
M  V30 83 C 6.3318 -3.5993 3.4174 0
M  V30 84 H 5.6333 -1.5424 3.4681 0
M  V30 85 C 6.9912 -3.5699 4.7907 0
M  V30 86 H 7.0681 -3.4003 2.6357 0
M  V30 87 H 5.8994 -4.5832 3.2274 0
M  V30 88 C 5.9546 -3.8157 5.8818 0
M  V30 89 H 7.4598 -2.5957 4.9484 0
M  V30 90 H 7.7732 -4.3305 4.8381 0
M  V30 91 C 4.8409 -2.7793 5.7974 0
M  V30 92 H 6.4265 -3.7672 6.8652 0
M  V30 93 H 5.5311 -4.8154 5.7611 0
M  V30 94 H 5.2435 -1.7785 5.9630 0
M  V30 95 H 4.0852 -2.9674 6.5631 0
M  V30 96 H 3.7123 -3.7981 4.2448 0
M  V30 97 C 0.3435 5.0454 4.3690 0
M  V30 98 C -0.3970 5.8157 3.2571 0
M  V30 99 N -0.0814 3.6818 4.3239 0
M  V30 100 N 0.0435 5.3093 1.9956 0
M  V30 101 C -0.0517 7.3051 3.3382 0
M  V30 102 H -1.4829 5.6715 3.4036 0
M  V30 103 C -0.4100 7.8761 4.7047 0
M  V30 104 H -0.5909 7.8344 2.5497 0
M  V30 105 H 1.0169 7.4212 3.1492 0
M  V30 106 C 0.3194 7.1136 5.8056 0
M  V30 107 H -1.4883 7.7958 4.8610 0
M  V30 108 H -0.1431 8.9342 4.7411 0
M  V30 109 C -0.0202 5.6299 5.7366 0
M  V30 110 H 0.0392 7.5085 6.7842 0
M  V30 111 H 1.3971 7.2461 5.6856 0
M  V30 112 H -1.0885 5.4793 5.9018 0
M  V30 113 H 0.5194 5.0782 6.5095 0
M  V30 114 H 1.4298 5.1457 4.1921 0
M  V30 115 C -0.6426 -5.2277 -4.1067 0
M  V30 116 C 0.7047 -5.6543 -3.4895 0
M  V30 117 N -1.3931 -4.5404 -3.1037 0
M  V30 118 N 1.4478 -4.4724 -3.1845 0
M  V30 119 C 1.4977 -6.4886 -4.4991 0
M  V30 120 H 0.4943 -6.2547 -2.5859 0
M  V30 121 C 0.7060 -7.7144 -4.9377 0
M  V30 122 H 2.4433 -6.7881 -4.0420 0
M  V30 123 H 1.7268 -5.8592 -5.3608 0
M  V30 124 C -0.6279 -7.2943 -5.5457 0
M  V30 125 H 0.5242 -8.3581 -4.0740 0
M  V30 126 H 1.2869 -8.2846 -5.6655 0
M  V30 127 C -1.4276 -6.4663 -4.5474 0
M  V30 128 H -1.2031 -8.1764 -5.8340 0
M  V30 129 H -0.4459 -6.7026 -6.4459 0
M  V30 130 H -1.6568 -7.0613 -3.6617 0
M  V30 131 H -2.3732 -6.1444 -4.9889 0
M  V30 132 H -0.4325 -4.5835 -4.9797 0
M  V30 133 C -5.1958 2.2030 -3.5526 0
M  V30 134 C -4.1459 3.1540 -4.1623 0
M  V30 135 N -4.5473 0.9697 -3.2361 0
M  V30 136 N -3.1862 3.4640 -3.1502 0
M  V30 137 C -4.8210 4.4515 -4.6154 0
M  V30 138 H -3.6838 2.6464 -5.0284 0
M  V30 139 C -5.9272 4.1692 -5.6245 0
M  V30 140 H -4.0645 5.1076 -5.0513 0
M  V30 141 H -5.2310 4.9510 -3.7359 0
M  V30 142 C -6.9647 3.2267 -5.0239 0
M  V30 143 H -5.4963 3.7122 -6.5183 0
M  V30 144 H -6.4002 5.1074 -5.9216 0
M  V30 145 C -6.3041 1.9298 -4.5731 0
M  V30 146 H -7.7412 3.0061 -5.7591 0
M  V30 147 H -7.4404 3.7095 -4.1671 0
M  V30 148 H -5.8645 1.4132 -5.4281 0
M  V30 149 H -7.0412 1.2626 -4.1212 0
M  V30 150 H -5.6201 2.6889 -2.6553 0
M  V30 151 C 4.8653 1.9985 -4.1169 0
M  V30 152 C 4.5597 3.3850 -3.5148 0
M  V30 153 N 4.6428 1.0155 -3.1041 0
M  V30 154 N 3.1639 3.4408 -3.2138 0
M  V30 155 C 4.8883 4.4784 -4.5350 0
M  V30 156 H 5.1827 3.5123 -2.6109 0
M  V30 157 C 6.3467 4.4009 -4.9693 0
M  V30 158 H 4.6739 5.4517 -4.0884 0
M  V30 159 H 4.2308 4.3532 -5.3970 0
M  V30 160 C 6.6512 3.0295 -5.5624 0
M  V30 161 H 6.9931 4.5742 -4.1057 0
M  V30 162 H 6.5520 5.1815 -5.7046 0
M  V30 163 C 6.3314 1.9333 -4.5535 0
M  V30 164 H 7.7034 2.9693 -5.8476 0
M  V30 165 H 6.0499 2.8820 -6.4625 0
M  V30 166 H 6.9592 2.0413 -3.6673 0
M  V30 167 H 6.5264 0.9489 -4.9844 0
M  V30 168 H 4.2043 1.8494 -4.9899 0
M  V30 END ATOM
M  V30 BEGIN BOND
M  V30 1 1 1 2
M  V30 2 1 1 3
M  V30 3 1 2 14
M  V30 4 2 3 4
M  V30 5 1 3 5
M  V30 6 1 4 6
M  V30 7 1 4 12
M  V30 8 2 6 7
M  V30 9 1 6 8
M  V30 10 1 7 9
M  V30 11 1 7 10
M  V30 12 2 9 1
M  V30 13 1 9 11
M  V30 14 1 10 13
M  V30 15 1 12 15
M  V30 16 1 16 17
M  V30 17 1 16 18
M  V30 18 1 17 29
M  V30 19 2 18 19
M  V30 20 1 18 20
M  V30 21 1 19 21
M  V30 22 1 19 27
M  V30 23 2 21 22
M  V30 24 1 21 23
M  V30 25 1 22 24
M  V30 26 1 22 25
M  V30 27 2 24 16
M  V30 28 1 24 26
M  V30 29 1 25 28
M  V30 30 1 27 30
M  V30 31 1 31 32
M  V30 32 1 31 33
M  V30 33 1 32 44
M  V30 34 2 33 34
M  V30 35 1 33 35
M  V30 36 1 34 36
M  V30 37 1 34 42
M  V30 38 2 36 37
M  V30 39 1 36 38
M  V30 40 1 37 39
M  V30 41 1 37 40
M  V30 42 2 39 31
M  V30 43 1 39 41
M  V30 44 1 40 43
M  V30 45 1 42 45
M  V30 46 1 46 47
M  V30 47 1 46 48
M  V30 48 1 47 59
M  V30 49 2 48 49
M  V30 50 1 48 50
M  V30 51 1 49 51
M  V30 52 1 49 57
M  V30 53 2 51 52
M  V30 54 1 51 53
M  V30 55 1 52 54
M  V30 56 1 52 55
M  V30 57 2 54 46
M  V30 58 1 54 56
M  V30 59 1 55 58
M  V30 60 1 57 60
M  V30 61 1 61 78
M  V30 62 1 61 63
M  V30 63 1 62 66
M  V30 64 1 62 64
M  V30 65 1 62 61
M  V30 66 1 65 62
M  V30 67 1 67 71
M  V30 68 1 67 65
M  V30 69 1 67 70
M  V30 70 1 68 65
M  V30 71 1 69 65
M  V30 72 1 70 73
M  V30 73 1 72 67
M  V30 74 1 73 76
M  V30 75 1 73 61
M  V30 76 1 73 77
M  V30 77 1 74 70
M  V30 78 1 75 70
M  V30 79 1 79 96
M  V30 80 1 79 81
M  V30 81 1 80 84
M  V30 82 1 80 82
M  V30 83 1 80 79
M  V30 84 1 83 80
M  V30 85 1 85 89
M  V30 86 1 85 83
M  V30 87 1 85 88
M  V30 88 1 86 83
M  V30 89 1 87 83
M  V30 90 1 88 91
M  V30 91 1 90 85
M  V30 92 1 91 94
M  V30 93 1 91 79
M  V30 94 1 91 95
M  V30 95 1 92 88
M  V30 96 1 93 88
M  V30 97 1 97 114
M  V30 98 1 97 99
M  V30 99 1 98 102
M  V30 100 1 98 100
M  V30 101 1 98 97
M  V30 102 1 101 98
M  V30 103 1 103 107
M  V30 104 1 103 101
M  V30 105 1 103 106
M  V30 106 1 104 101
M  V30 107 1 105 101
M  V30 108 1 106 109
M  V30 109 1 108 103
M  V30 110 1 109 112
M  V30 111 1 109 97
M  V30 112 1 109 113
M  V30 113 1 110 106
M  V30 114 1 111 106
M  V30 115 1 115 132
M  V30 116 1 115 117
M  V30 117 1 116 120
M  V30 118 1 116 118
M  V30 119 1 116 115
M  V30 120 1 119 116
M  V30 121 1 121 125
M  V30 122 1 121 119
M  V30 123 1 121 124
M  V30 124 1 122 119
M  V30 125 1 123 119
M  V30 126 1 124 127
M  V30 127 1 126 121
M  V30 128 1 127 130
M  V30 129 1 127 115
M  V30 130 1 127 131
M  V30 131 1 128 124
M  V30 132 1 129 124
M  V30 133 1 133 150
M  V30 134 1 133 135
M  V30 135 1 134 138
M  V30 136 1 134 136
M  V30 137 1 134 133
M  V30 138 1 137 134
M  V30 139 1 139 143
M  V30 140 1 139 137
M  V30 141 1 139 142
M  V30 142 1 140 137
M  V30 143 1 141 137
M  V30 144 1 142 145
M  V30 145 1 144 139
M  V30 146 1 145 148
M  V30 147 1 145 133
M  V30 148 1 145 149
M  V30 149 1 146 142
M  V30 150 1 147 142
M  V30 151 1 151 168
M  V30 152 1 151 153
M  V30 153 1 152 156
M  V30 154 1 152 154
M  V30 155 1 152 151
M  V30 156 1 155 152
M  V30 157 1 157 161
M  V30 158 1 157 155
M  V30 159 1 157 160
M  V30 160 1 158 155
M  V30 161 1 159 155
M  V30 162 1 160 163
M  V30 163 1 162 157
M  V30 164 1 163 166
M  V30 165 1 163 151
M  V30 166 1 163 167
M  V30 167 1 164 160
M  V30 168 1 165 160
M  V30 169 2 2 63
M  V30 170 2 17 64
M  V30 171 2 10 81
M  V30 172 2 32 82
M  V30 173 2 12 99
M  V30 174 2 47 100
M  V30 175 2 27 117
M  V30 176 2 40 118
M  V30 177 2 25 135
M  V30 178 2 57 136
M  V30 179 2 42 153
M  V30 180 2 55 154
M  V30 END BOND
M  V30 END CTAB
M  END

$$$$
