
 OpenBabel02022019513D

 30 29  0  0  1  0  0  0  0  0999 V2000
   -0.5678    0.4986    0.1038 C   0  0  1  0  0  0  0  0  0  0  0  0
    1.0323    0.5212   -0.0320 C   0  0  1  0  0  0  0  0  0  0  0  0
   -1.1028    1.7954   -0.3622 N   0  0  0  0  0  0  0  0  0  0  0  0
   -0.8274    0.4149    1.1837 H   0  0  0  0  0  0  0  0  0  0  0  0
   -1.3308   -0.6812   -0.6300 C   0  0  0  0  0  0  0  0  0  0  0  0
    1.5674    1.5968    0.8293 N   0  0  0  0  0  0  0  0  0  0  0  0
    1.2919    0.7921   -1.0807 H   0  0  0  0  0  0  0  0  0  0  0  0
    1.7952   -0.8329    0.2797 C   0  0  0  0  0  0  0  0  0  0  0  0
   -0.7643    2.5824    0.2248 H   0  0  0  0  0  0  0  0  0  0  0  0
   -2.1244    1.8598   -0.1629 H   0  0  0  0  0  0  0  0  0  0  0  0
    1.2290    2.5316    0.5290 H   0  0  0  0  0  0  0  0  0  0  0  0
    2.5890    1.7223    0.6615 H   0  0  0  0  0  0  0  0  0  0  0  0
   -0.8770   -0.8240   -1.6322 H   0  0  0  0  0  0  0  0  0  0  0  0
   -2.8222   -0.3940   -0.9238 C   0  0  0  0  0  0  0  0  0  0  0  0
   -1.3358   -1.9877    0.2073 C   0  0  0  0  0  0  0  0  0  0  0  0
    1.3413   -1.2928    1.1815 H   0  0  0  0  0  0  0  0  0  0  0  0
    3.2866   -0.6565    0.6507 C   0  0  0  0  0  0  0  0  0  0  0  0
    1.8001   -1.7974   -0.9358 C   0  0  0  0  0  0  0  0  0  0  0  0
   -0.3534   -2.3900    0.4765 H   0  0  0  0  0  0  0  0  0  0  0  0
   -1.8529   -2.7976   -0.3515 H   0  0  0  0  0  0  0  0  0  0  0  0
   -1.8803   -1.8254    1.1626 H   0  0  0  0  0  0  0  0  0  0  0  0
   -2.9400    0.4594   -1.6239 H   0  0  0  0  0  0  0  0  0  0  0  0
   -3.3824   -0.1906    0.0152 H   0  0  0  0  0  0  0  0  0  0  0  0
   -3.2928   -1.2630   -1.4331 H   0  0  0  0  0  0  0  0  0  0  0  0
    0.8176   -2.0906   -1.3210 H   0  0  0  0  0  0  0  0  0  0  0  0
    2.3172   -2.7448   -0.6698 H   0  0  0  0  0  0  0  0  0  0  0  0
    2.3446   -1.3342   -1.7870 H   0  0  0  0  0  0  0  0  0  0  0  0
    3.4045   -0.0761    1.5897 H   0  0  0  0  0  0  0  0  0  0  0  0
    3.8468   -0.1597   -0.1716 H   0  0  0  0  0  0  0  0  0  0  0  0
    3.7571   -1.6437    0.8509 H   0  0  0  0  0  0  0  0  0  0  0  0
  1  4  1  1  0  0  0
  2  7  1  6  0  0  0
  2  1  1  0  0  0  0
  2  8  1  0  0  0  0
  2  6  1  0  0  0  0
  3 10  1  0  0  0  0
  3  1  1  0  0  0  0
  3  9  1  0  0  0  0
  5  1  1  0  0  0  0
  5 15  1  0  0  0  0
  8 17  1  0  0  0  0
  8 16  1  0  0  0  0
 11  6  1  0  0  0  0
 12  6  1  0  0  0  0
 13  5  1  0  0  0  0
 14  5  1  0  0  0  0
 14 23  1  0  0  0  0
 15 19  1  0  0  0  0
 15 21  1  0  0  0  0
 17 30  1  0  0  0  0
 17 28  1  0  0  0  0
 18 26  1  0  0  0  0
 18  8  1  0  0  0  0
 20 15  1  0  0  0  0
 22 14  1  0  0  0  0
 24 14  1  0  0  0  0
 25 18  1  0  0  0  0
 27 18  1  0  0  0  0
 29 17  1  0  0  0  0
M  END
