
     RDKit          3D

  0  0  0  0  0  0  0  0  0  0999 V3000
M  V30 BEGIN CTAB
M  V30 COUNTS 18 17 0 0 0
M  V30 BEGIN ATOM
M  V30 1 C -0.6438 0.7901 0.3530 0
M  V30 2 C 0.8492 0.4308 0.5588 0
M  V30 3 N -0.7009 2.2220 0.0684 0
M  V30 4 C -1.4329 0.4059 1.6141 0
M  V30 5 C -1.2176 0.0498 -0.8576 0
M  V30 6 N 1.7344 0.8292 -0.5160 0
M  V30 7 H -0.3641 2.7508 0.8667 0
M  V30 8 H -1.6573 2.5077 -0.1121 0
M  V30 9 H 1.5149 0.3076 -1.3581 0
M  V30 10 H 1.5718 1.8108 -0.7202 0
M  V30 11 H 0.9460 -0.6476 0.7056 0
M  V30 12 H 1.2028 0.9282 1.4683 0
M  V30 13 H -1.0660 -1.0218 -0.7554 0
M  V30 14 H -0.7370 0.3934 -1.7702 0
M  V30 15 H -2.2850 0.2422 -0.9464 0
M  V30 16 H -1.3688 -0.6643 1.7936 0
M  V30 17 H -2.4826 0.6743 1.5016 0
M  V30 18 H -1.0354 0.9245 2.4853 0
M  V30 END ATOM
M  V30 BEGIN BOND
M  V30 1 1 1 4
M  V30 2 1 2 1
M  V30 3 1 2 6
M  V30 4 1 2 11
M  V30 5 1 2 12
M  V30 6 1 3 8
M  V30 7 1 3 1
M  V30 8 1 3 7
M  V30 9 1 4 16
M  V30 10 1 4 17
M  V30 11 1 4 18
M  V30 12 1 5 1
M  V30 13 1 5 13
M  V30 14 1 5 14
M  V30 15 1 5 15
M  V30 16 1 9 6
M  V30 17 1 10 6
M  V30 END BOND
M  V30 END CTAB
M  END

$$$$
