22

C 0.565700 -0.406200 1.907100
C 1.745700 -0.590500 0.930600
N 1.082300 -0.432200 3.269600
N 2.812700 0.375000 1.132500
H 0.332500 -0.272900 3.934100
H 1.478700 -1.346200 3.468800
H 3.079700 0.363800 2.112100
H 2.467200 1.309000 0.931300
C 1.246000 -0.517400 -0.511600
H 2.184300 -1.581700 1.108100
C 0.171000 -1.566000 -0.775800
H 2.093800 -0.659200 -1.182700
H 0.837300 0.479700 -0.694700
C -0.998500 -1.383900 0.186900
H 0.596900 -2.563300 -0.644900
H -0.180000 -1.484400 -1.806400
C -0.515100 -1.460600 1.631200
H -1.754000 -2.152300 0.008500
H -1.463600 -0.410600 0.013100
H -0.097500 -2.453500 1.823700
H -1.355200 -1.311700 2.316300
H 0.138400 0.593900 1.752700
