
     RDKit          3D

  0  0  0  0  0  0  0  0  0  0999 V3000
M  V30 BEGIN CTAB
M  V30 COUNTS 12 11 0 0 0
M  V30 BEGIN ATOM
M  V30 1 C -0.7407 0.9871 0.4942 0
M  V30 2 C 0.6799 0.4539 0.2500 0
M  V30 3 N -1.2498 1.8276 -0.5713 0
M  V30 4 N 1.5872 1.5758 0.0574 0
M  V30 5 H -1.3069 1.2920 -1.4324 0
M  V30 6 H -0.5854 2.5784 -0.7349 0
M  V30 7 H 1.6283 2.1371 0.9027 0
M  V30 8 H 2.5253 1.2467 -0.1417 0
M  V30 9 H 0.6923 -0.1402 -0.6696 0
M  V30 10 H 0.9653 -0.2071 1.0861 0
M  V30 11 H -0.7459 1.5827 1.4125 0
M  V30 12 H -1.4245 0.1450 0.6299 0
M  V30 END ATOM
M  V30 BEGIN BOND
M  V30 1 1 1 11
M  V30 2 1 1 12
M  V30 3 1 2 1
M  V30 4 1 2 4
M  V30 5 1 2 9
M  V30 6 1 2 10
M  V30 7 1 3 6
M  V30 8 1 3 1
M  V30 9 1 3 5
M  V30 10 1 7 4
M  V30 11 1 8 4
M  V30 END BOND
M  V30 END CTAB
M  END

$$$$
