
 OpenBabel02072018123D

  3  2  0  0  0  0  0  0  0  0999 V2000
   -0.9806    0.6380    0.0000 O   0  0  0  0  0  0  0  0  0  0  0  0
   -0.0106    0.6380    0.0000 H   0  0  0  0  0  0  0  0  0  0  0  0
   -1.3039    1.1838    0.7338 H   0  0  0  0  0  0  0  0  0  0  0  0
  1  2  1  0  0  0  0
  1  3  1  0  0  0  0
M  END
