188
trans_l3_lc
Pd    7.229900    0.700100    0.302200
Pd   -6.994600    0.631600    0.048600
 C    3.139000    1.344400    0.394300
 C    4.469100    1.159700    0.102400
 N    5.377700    0.895400    1.052200
 C    4.990400    0.824900    2.334600
 C    3.666100    0.975400    2.703100
 C    2.697000    1.227400    1.721900
 C    1.289300    1.338600    2.039300
 C    0.666300    1.332700    3.274300
 C   -0.731700    1.446000    3.177600
 C   -1.169300    1.559100    1.868000
 S    0.146300    1.501900    0.761500
 C   -2.520900    1.650400    1.363500
 C   -2.804100    1.727600   -0.010600
 C   -4.115100    1.664900   -0.481600
 N   -5.158500    1.560500    0.356300
 C   -4.905900    1.627200    1.682300
 C   -3.632300    1.683900    2.217600
 H    2.453500    1.559700   -0.425900
 H    4.823300    1.222400   -0.930600
 H    5.759400    0.614500    3.079500
 H    3.403300    0.880600    3.756700
 H    1.201200    1.252200    4.220900
 H   -1.395800    1.453200    4.041700
 H   -1.999900    1.773000   -0.747400
 H   -4.329600    1.660000   -1.551500
 H   -5.774600    1.582900    2.342500
 H   -3.522700    1.709500    3.301200
 C    1.820100   -2.310700    0.251100
 C    3.108500   -2.199500    0.760800
 N    4.199600   -2.122600    0.002400
 C    4.032400   -2.168600   -1.322300
 C    2.783100   -2.278900   -1.936200
 C    1.624700   -2.353400   -1.138300
 C    0.267000   -2.446400   -1.693600
 C   -0.184200   -2.647500   -2.993000
 C   -1.598800   -2.600400   -3.100800
 C   -2.198300   -2.375000   -1.874400
 S   -1.079600   -2.240900   -0.632300
 C   -3.501500   -2.077200   -1.406300
 C   -3.657400   -1.963300   -0.015700
 C   -4.828700   -1.426900    0.501300
 N   -5.803400   -1.000700   -0.316500
 C   -5.694200   -1.231700   -1.642200
 C   -4.584300   -1.785800   -2.227500
 H    0.979000   -2.373000    0.945000
 H    3.257200   -2.176600    1.845400
 H    4.945100   -2.109400   -1.925500
 H    2.721200   -2.297100   -3.024000
 H    0.478200   -2.826800   -3.839300
 H   -2.144400   -2.724600   -4.036000
 H   -2.863700   -2.249100    0.676400
 H   -4.964900   -1.275700    1.573600
 H   -6.527400   -0.900900   -2.266400
 H   -4.546800   -1.901500   -3.310200
 C  -10.093700    3.493100   -0.816900
 C   -9.532400    4.756600   -0.511800
 C   -8.172800    4.764000   -0.095200
 C   -7.475600    5.988300    0.104700
 C   -8.186000    7.168200    0.017000
 C   -9.560900    7.160600   -0.325300
 C  -10.222500    5.987700   -0.616700
 C   -6.013300    5.915200    0.298500
 C   -5.368000    6.423700    1.430600
 C   -3.996100    6.263300    1.588000
 C   -3.235500    5.599300    0.607400
 C   -1.835000    5.408100    0.769300
 C   -0.637600    5.230400    0.893500
 C    0.764500    5.072700    1.086800
 C    1.279100    5.050800    2.395800
 C    2.647400    4.917200    2.605500
 C    3.516000    4.816600    1.524900
 C    3.017100    4.834500    0.206800
 C    3.949900    4.728100   -0.867000
 C    4.848000    4.613700   -1.682600
 C    6.008200    4.381600   -2.478600
 C    7.223500    4.990600   -2.116100
 C    8.421800    4.552400   -2.668000
 C    8.431600    3.497900   -3.587900
 C    9.662500    2.677200   -3.733900
 C    9.817100    1.674500   -2.725600
 C   10.929600    0.787300   -2.720200
 C   10.984600   -0.190200   -1.690600
 C    9.989600   -0.267000   -0.747800
 N    8.942200    0.599200   -0.769500
 C    8.862800    1.526500   -1.702600
 C   11.902400    0.927400   -3.740300
 C   11.747100    1.901800   -4.701600
 C   10.630400    2.777100   -4.705600
 C    7.209000    3.001800   -4.064400
 C    6.005300    3.439400   -3.523300
 C    1.638100    4.950700   -0.004100
 C   -3.881500    5.117300   -0.543500
 C   -5.250100    5.271900   -0.688800
 C   -7.531300    3.532600    0.138500
 N   -8.091800    2.367000   -0.123000
 C   -9.353500    2.353400   -0.651500
 H  -11.110700    3.418600   -1.205600
 H   -7.674000    8.120900    0.167200
 H  -10.091400    8.112500   -0.397100
 H  -11.268200    5.994400   -0.930700
 H   -5.949900    6.923300    2.207900
 H   -3.501900    6.643700    2.483400
 H    0.593800    5.139100    3.239700
 H    3.041900    4.894600    3.623100
 H    4.590800    4.715600    1.686600
 H    7.229800    5.755200   -1.337300
 H    9.366900    4.959500   -2.301900
 H   11.815200   -0.896500   -1.648200
 H    9.995800   -1.015300    0.044200
 H    7.996900    2.199400   -1.666400
 H   12.766100    0.260400   -3.755500
 H   12.498100    2.007200   -5.487400
 H   10.540300    3.531800   -5.489200
 H    7.206500    2.189300   -4.794700
 H    5.064300    2.988400   -3.843300
 H    1.241500    4.961800   -1.020500
 H   -3.299700    4.616100   -1.318800
 H   -5.742300    4.886600   -1.585300
 H   -6.522100    3.532800    0.544000
 H   -9.753500    1.381600   -0.936500
 C  -10.756400   -0.961500    1.372700
 C  -10.773900   -2.296800    0.895900
 C   -9.613900   -2.748600    0.207300
 C   -9.469000   -4.122400   -0.159200
 C  -10.548600   -4.962200    0.025000
 C  -11.740400   -4.491100    0.625300
 C  -11.847900   -3.197800    1.088400
 C   -8.136600   -4.600200   -0.592700
 C   -7.073500   -4.401000    0.304300
 C   -5.780600   -4.763600   -0.024200
 C   -5.503200   -5.336600   -1.276800
 C   -4.151500   -5.636100   -1.606400
 C   -2.973800   -5.851500   -1.830600
 C   -1.593800   -6.069200   -2.105300
 C   -1.183600   -6.476400   -3.387900
 C    0.167200   -6.656200   -3.664100
 C    1.123700   -6.432600   -2.680400
 C    0.733500   -6.022400   -1.391900
 C    1.731500   -5.754800   -0.412200
 C    2.642400   -5.503300    0.355800
 C    3.747900   -5.129200    1.169200
 C    5.021100   -4.970600    0.592300
 C    6.080300   -4.486200    1.345400
 C    5.903300   -4.165100    2.696200
 C    7.019200   -3.623800    3.504200
 C    7.657400   -2.389300    3.167500
 C    8.728300   -1.904500    3.983300
 C    9.321600   -0.667800    3.639900
 C    8.853900    0.041000    2.571800
 N    7.815700   -0.428600    1.818400
 C    7.231100   -1.589500    2.079900
 C    9.147700   -2.644200    5.112100
 C    8.506300   -3.817200    5.430700
 C    7.445300   -4.299100    4.632900
 C    4.651400   -4.381000    3.288800
 C    3.582500   -4.850000    2.537300
 C   -0.629300   -5.847200   -1.109100
 C   -6.568700   -5.565900   -2.169400
 C   -7.871000   -5.205900   -1.827400
 C   -8.622000   -1.801500   -0.108900
 N   -8.643600   -0.553600    0.324200
 C   -9.681200   -0.150200    1.116700
 H  -11.588600   -0.577700    1.964900
 H  -10.464000   -6.017100   -0.245300
 H  -12.570000   -5.187000    0.766300
 H  -12.747100   -2.859800    1.606800
 H   -7.270800   -3.951600    1.280800
 H   -4.967600   -4.599600    0.684900
 H   -1.934500   -6.646000   -4.161100
 H    0.479600   -6.972500   -4.661400
 H    2.184500   -6.566400   -2.899200
 H    5.163700   -5.202500   -0.464300
 H    7.058600   -4.350000    0.879000
 H   10.143600   -0.267000    4.234800
 H    9.275900    1.003400    2.282900
 H    6.380300   -1.865100    1.431100
 H    9.969700   -2.265500    5.722700
 H    8.818300   -4.390100    6.306300
 H    6.958400   -5.238400    4.901900
 H    4.508500   -4.142900    4.345500
 H    2.601500   -4.977700    2.998100
 H   -0.939300   -5.512400   -0.117500
 H   -6.364400   -6.016100   -3.142300
 H   -8.685000   -5.372200   -2.536400
 H   -7.787300   -2.106800   -0.731500
 H   -9.624700    0.861600    1.517300
