
     RDKit          3D

  0  0  0  0  0  0  0  0  0  0999 V3000
M  V30 BEGIN CTAB
M  V30 COUNTS 62 67 0 0 0
M  V30 BEGIN ATOM
M  V30 1 Br -5.9818 -6.4866 0.2892 0
M  V30 2 C -5.0197 -4.8538 0.1884 0
M  V30 3 C -5.5548 -3.7759 -0.4635 0
M  V30 4 C -4.8434 -2.5945 -0.5286 0
M  V30 5 C -3.6010 -2.4311 0.0340 0
M  V30 6 C -2.8516 -1.1664 -0.0234 0
M  V30 7 C -3.5322 0.0233 -0.0230 0
M  V30 8 C -2.8387 1.2050 -0.0640 0
M  V30 9 C -3.5874 2.4526 -0.0859 0
M  V30 10 C -3.1384 3.5774 -0.7259 0
M  V30 11 C -3.8721 4.7579 -0.7535 0
M  V30 12 C -5.1056 4.8247 -0.1175 0
M  V30 13 Br -6.1378 6.4290 -0.1397 0
M  V30 14 C -5.5557 3.6806 0.5307 0
M  V30 15 C -4.8095 2.5212 0.5439 0
M  V30 16 C -1.4537 1.1972 -0.1043 0
M  V30 17 C -0.7637 0.0140 -0.1054 0
M  V30 18 C 0.7093 0.0112 -0.0988 0
M  V30 19 C 1.4283 -1.1859 0.0145 0
M  V30 20 C 2.8055 -1.2037 0.0654 0
M  V30 21 C 3.5876 -2.4330 0.1494 0
M  V30 22 C 4.8566 -2.5148 -0.4219 0
M  V30 23 C 5.6123 -3.6782 -0.3670 0
M  V30 24 C 5.1307 -4.8037 0.2603 0
M  V30 25 Br 6.1551 -6.4230 0.3455 0
M  V30 26 C 3.8787 -4.7442 0.8312 0
M  V30 27 C 3.1230 -3.5709 0.7730 0
M  V30 28 C 3.4780 -0.0126 0.0050 0
M  V30 29 C 2.8296 1.1928 -0.1050 0
M  V30 30 C 3.6024 2.4220 -0.1331 0
M  V30 31 C 4.7991 2.5414 0.5547 0
M  V30 32 C 5.5179 3.7338 0.5335 0
M  V30 33 C 5.0492 4.8125 -0.1724 0
M  V30 34 Br 6.0151 6.4758 -0.2175 0
M  V30 35 C 3.8650 4.7131 -0.8612 0
M  V30 36 C 3.1526 3.5021 -0.8292 0
M  V30 37 C 1.4432 1.1693 -0.1553 0
M  V30 38 C -1.4543 -1.1920 -0.0658 0
M  V30 39 C -3.0765 -3.5412 0.6919 0
M  V30 40 C -3.7559 -4.7382 0.7793 0
M  V30 41 H -6.5390 -3.8387 -0.9321 0
M  V30 42 H -5.3001 -1.7765 -1.0468 0
M  V30 43 H -4.6358 0.0053 0.0119 0
M  V30 44 H -2.1902 3.5947 -1.2421 0
M  V30 45 H -3.5063 5.6409 -1.2637 0
M  V30 46 H -6.5186 3.7424 1.0250 0
M  V30 47 H -5.2092 1.6798 1.0563 0
M  V30 48 H -0.9393 2.1600 -0.1337 0
M  V30 49 H 0.9093 -2.1509 0.0662 0
M  V30 50 H 5.2370 -1.6259 -0.9191 0
M  V30 51 H 6.5881 -3.7112 -0.8151 0
M  V30 52 H 3.4840 -5.6066 1.3210 0
M  V30 53 H 2.1308 -3.5362 1.2298 0
M  V30 54 H 4.5676 0.0221 0.0445 0
M  V30 55 H 5.1414 1.6743 1.1002 0
M  V30 56 H 6.4453 3.7990 1.0780 0
M  V30 57 H 3.4836 5.5458 -1.4185 0
M  V30 58 H 2.2190 3.4810 -1.3945 0
M  V30 59 H 0.9658 2.1458 -0.2451 0
M  V30 60 H -0.9836 -2.1445 -0.0700 0
M  V30 61 H -2.1009 -3.4135 1.1395 0
M  V30 62 H -3.3541 -5.5944 1.2877 0
M  V30 END ATOM
M  V30 BEGIN BOND
M  V30 1 1 1 2
M  V30 2 2 2 3
M  V30 3 1 3 4
M  V30 4 2 4 5
M  V30 5 1 5 6
M  V30 6 2 6 7
M  V30 7 1 7 8
M  V30 8 1 8 9
M  V30 9 2 9 10
M  V30 10 1 10 11
M  V30 11 2 11 12
M  V30 12 1 12 13
M  V30 13 1 12 14
M  V30 14 2 14 15
M  V30 15 2 8 16
M  V30 16 1 16 17
M  V30 17 1 17 18
M  V30 18 2 18 19
M  V30 19 1 19 20
M  V30 20 1 20 21
M  V30 21 2 21 22
M  V30 22 1 22 23
M  V30 23 2 23 24
M  V30 24 1 24 25
M  V30 25 1 24 26
M  V30 26 2 26 27
M  V30 27 2 20 28
M  V30 28 1 28 29
M  V30 29 1 29 30
M  V30 30 2 30 31
M  V30 31 1 31 32
M  V30 32 2 32 33
M  V30 33 1 33 34
M  V30 34 1 33 35
M  V30 35 2 35 36
M  V30 36 2 29 37
M  V30 37 2 17 38
M  V30 38 1 5 39
M  V30 39 2 39 40
M  V30 40 1 40 2
M  V30 41 1 38 6
M  V30 42 1 15 9
M  V30 43 1 37 18
M  V30 44 1 27 21
M  V30 45 1 36 30
M  V30 46 1 3 41
M  V30 47 1 4 42
M  V30 48 1 7 43
M  V30 49 1 10 44
M  V30 50 1 11 45
M  V30 51 1 14 46
M  V30 52 1 15 47
M  V30 53 1 16 48
M  V30 54 1 19 49
M  V30 55 1 22 50
M  V30 56 1 23 51
M  V30 57 1 26 52
M  V30 58 1 27 53
M  V30 59 1 28 54
M  V30 60 1 31 55
M  V30 61 1 32 56
M  V30 62 1 35 57
M  V30 63 1 36 58
M  V30 64 1 37 59
M  V30 65 1 38 60
M  V30 66 1 39 61
M  V30 67 1 40 62
M  V30 END BOND
M  V30 END CTAB
M  END

$$$$
