
     RDKit          3D

  0  0  0  0  0  0  0  0  0  0999 V3000
M  V30 BEGIN CTAB
M  V30 COUNTS 72 78 0 0 0
M  V30 BEGIN ATOM
M  V30 1 Br 7.1623 -7.3947 0.1514 0
M  V30 2 C 6.4704 -5.6022 0.1091 0
M  V30 3 C 5.2544 -5.3249 -0.4752 0
M  V30 4 C 4.7545 -4.0254 -0.5047 0
M  V30 5 C 5.4494 -2.9727 0.0445 0
M  V30 6 C 4.8688 -1.6430 -0.0201 0
M  V30 7 C 5.6310 -0.4896 -0.1043 0
M  V30 8 C 5.0793 0.7667 -0.1630 0
M  V30 9 C 5.8954 1.9937 -0.2546 0
M  V30 10 C 5.4814 3.1792 0.2889 0
M  V30 11 C 6.2923 4.2894 0.1655 0
M  V30 12 C 7.5018 4.2004 -0.4971 0
M  V30 13 Br 8.6328 5.7363 -0.6736 0
M  V30 14 C 7.9318 3.0083 -1.0510 0
M  V30 15 C 7.1046 1.9119 -0.9151 0
M  V30 16 C 3.7050 0.8725 -0.1360 0
M  V30 17 C 2.9061 -0.2716 -0.0516 0
M  V30 18 C 1.4453 -0.1408 -0.0222 0
M  V30 19 C 0.6462 -1.0397 0.6518 0
M  V30 20 C -0.7262 -0.9285 0.6914 0
M  V30 21 C -1.3632 0.1092 0.0437 0
M  V30 22 C -2.8224 0.2640 0.0617 0
M  V30 23 C -3.4306 1.5088 0.0089 0
M  V30 24 C -4.8028 1.6462 0.0251 0
M  V30 25 C -5.4247 2.9525 -0.0294 0
M  V30 26 C -6.6498 3.1491 -0.6236 0
M  V30 27 C -7.2615 4.3821 -0.6868 0
M  V30 28 C -6.6436 5.4888 -0.1392 0
M  V30 29 Br -7.4831 7.2141 -0.2191 0
M  V30 30 C -5.4172 5.3183 0.4611 0
M  V30 31 C -4.8156 4.0811 0.5182 0
M  V30 32 C -5.5531 0.5064 0.0955 0
M  V30 33 C -4.9757 -0.7574 0.1499 0
M  V30 34 C -5.8375 -1.9146 0.2238 0
M  V30 35 C -5.4523 -3.1083 -0.3355 0
M  V30 36 C -6.3270 -4.1921 -0.2328 0
M  V30 37 C -7.5451 -4.1054 0.4011 0
M  V30 38 Br -8.7029 -5.6194 0.5125 0
M  V30 39 C -7.9146 -2.9028 0.9553 0
M  V30 40 C -7.0541 -1.8270 0.8573 0
M  V30 41 C -3.5858 -0.8758 0.1325 0
M  V30 42 C -0.5629 1.0146 -0.6350 0
M  V30 43 C 0.8093 0.8978 -0.6709 0
M  V30 44 C 3.4975 -1.5180 0.0055 0
M  V30 45 C 6.6640 -3.2534 0.6275 0
M  V30 46 C 7.1724 -4.5530 0.6614 0
M  V30 47 H 4.7049 -6.1663 -0.9113 0
M  V30 48 H 3.7989 -3.8450 -0.9714 0
M  V30 49 H 6.6976 -0.6042 -0.1234 0
M  V30 50 H 4.5233 3.1958 0.7990 0
M  V30 51 H 5.9927 5.2278 0.5808 0
M  V30 52 H 8.8886 2.9512 -1.5719 0
M  V30 53 H 7.4456 0.9786 -1.3513 0
M  V30 54 H 3.2420 1.8486 -0.1804 0
M  V30 55 H 1.0872 -1.8878 1.1879 0
M  V30 56 H -1.3513 -1.6486 1.2299 0
M  V30 57 H -2.8243 2.4040 -0.0468 0
M  V30 58 H -7.1436 2.2874 -1.0565 0
M  V30 59 H -8.2311 4.4910 -1.1669 0
M  V30 60 H -4.9529 6.2057 0.8843 0
M  V30 61 H -3.8573 3.9479 0.9874 0
M  V30 62 H -6.6275 0.5845 0.1091 0
M  V30 63 H -4.5112 -3.2563 -0.8503 0
M  V30 64 H -6.0087 -5.1213 -0.6770 0
M  V30 65 H -8.8655 -2.7739 1.4689 0
M  V30 66 H -7.3663 -0.8888 1.3024 0
M  V30 67 H -3.1497 -1.8467 0.1743 0
M  V30 68 H -1.0692 1.8383 -1.1493 0
M  V30 69 H 1.4116 1.6323 -1.2178 0
M  V30 70 H 2.8331 -2.3922 0.0721 0
M  V30 71 H 7.2102 -2.4258 1.0592 0
M  V30 72 H 8.1185 -4.7672 1.1164 0
M  V30 END ATOM
M  V30 BEGIN BOND
M  V30 1 1 1 2
M  V30 2 2 2 3
M  V30 3 1 3 4
M  V30 4 2 4 5
M  V30 5 1 5 6
M  V30 6 2 6 7
M  V30 7 1 7 8
M  V30 8 1 8 9
M  V30 9 2 9 10
M  V30 10 1 10 11
M  V30 11 2 11 12
M  V30 12 1 12 13
M  V30 13 1 12 14
M  V30 14 2 14 15
M  V30 15 2 8 16
M  V30 16 1 16 17
M  V30 17 1 17 18
M  V30 18 2 18 19
M  V30 19 1 19 20
M  V30 20 2 20 21
M  V30 21 1 21 22
M  V30 22 2 22 23
M  V30 23 1 23 24
M  V30 24 1 24 25
M  V30 25 2 25 26
M  V30 26 1 26 27
M  V30 27 2 27 28
M  V30 28 1 28 29
M  V30 29 1 28 30
M  V30 30 2 30 31
M  V30 31 2 24 32
M  V30 32 1 32 33
M  V30 33 1 33 34
M  V30 34 2 34 35
M  V30 35 1 35 36
M  V30 36 2 36 37
M  V30 37 1 37 38
M  V30 38 1 37 39
M  V30 39 2 39 40
M  V30 40 2 33 41
M  V30 41 1 21 42
M  V30 42 2 42 43
M  V30 43 2 17 44
M  V30 44 1 5 45
M  V30 45 2 45 46
M  V30 46 1 46 2
M  V30 47 1 44 6
M  V30 48 1 15 9
M  V30 49 1 43 18
M  V30 50 1 41 22
M  V30 51 1 31 25
M  V30 52 1 40 34
M  V30 53 1 3 47
M  V30 54 1 4 48
M  V30 55 1 7 49
M  V30 56 1 10 50
M  V30 57 1 11 51
M  V30 58 1 14 52
M  V30 59 1 15 53
M  V30 60 1 16 54
M  V30 61 1 19 55
M  V30 62 1 20 56
M  V30 63 1 23 57
M  V30 64 1 26 58
M  V30 65 1 27 59
M  V30 66 1 30 60
M  V30 67 1 31 61
M  V30 68 1 32 62
M  V30 69 1 35 63
M  V30 70 1 36 64
M  V30 71 1 39 65
M  V30 72 1 40 66
M  V30 73 1 41 67
M  V30 74 1 42 68
M  V30 75 1 43 69
M  V30 76 1 44 70
M  V30 77 1 45 71
M  V30 78 1 46 72
M  V30 END BOND
M  V30 END CTAB
M  END

$$$$
