
     RDKit          3D

  0  0  0  0  0  0  0  0  0  0999 V3000
M  V30 BEGIN CTAB
M  V30 COUNTS 632 720 0 0 0
M  V30 BEGIN ATOM
M  V30 1 C -3.9378 3.7248 5.7586 0
M  V30 2 C -2.7303 4.3732 5.4718 0
M  V30 3 C -1.5208 3.7578 5.6836 0
M  V30 4 C -1.4687 2.4523 6.1909 0
M  V30 5 N -0.2339 1.8383 6.3617 0
M  V30 6 C 0.8565 2.6147 6.7688 0
M  V30 7 C 0.7249 3.4960 7.8494 0
M  V30 8 C 1.7637 4.3183 8.2160 0
M  V30 9 C 2.9524 4.3420 7.4663 0
M  V30 10 C 3.0882 3.4300 6.4084 0
M  V30 11 C 2.0755 2.5558 6.0834 0
M  V30 12 C -0.0645 0.4615 6.1554 0
M  V30 13 C 0.8138 -0.2526 6.9727 0
M  V30 14 C 0.9916 -1.6054 6.7817 0
M  V30 15 C 0.3032 -2.2657 5.7631 0
M  V30 16 N 0.4951 -3.6548 5.5584 0
M  V30 17 C 1.7901 -4.1508 5.6603 0
M  V30 18 C 2.8628 -3.3378 5.2643 0
M  V30 19 C 4.1567 -3.7215 5.5189 0
M  V30 20 C 4.4295 -4.9593 6.1147 0
M  V30 21 C 3.3672 -5.8210 6.4005 0
M  V30 22 C 2.0668 -5.4146 6.1999 0
M  V30 23 C -0.6139 -4.4824 5.4880 0
M  V30 24 C -0.5697 -5.6808 4.7592 0
M  V30 25 C -1.6481 -6.5330 4.7397 0
M  V30 26 C -2.8197 -6.2144 5.4441 0
M  V30 27 C -2.8907 -4.9774 6.0964 0
M  V30 28 C -1.8120 -4.1268 6.1234 0
M  V30 29 C -0.5702 -1.5531 4.9409 0
M  V30 30 C -0.7535 -0.1991 5.1356 0
M  V30 31 C -2.6711 1.7977 6.4897 0
M  V30 32 C -3.8804 2.4242 6.2898 0
M  V30 33 H -2.7599 5.3600 5.0440 0
M  V30 34 H -0.6055 4.2702 5.4363 0
M  V30 35 H -0.1964 3.5196 8.4108 0
M  V30 36 H 1.6385 4.9452 9.0837 0
M  V30 37 H 3.9833 3.4723 5.8044 0
M  V30 38 H 2.1960 1.8692 5.2607 0
M  V30 39 H 1.3307 0.2497 7.7743 0
M  V30 40 H 1.6453 -2.1581 7.4367 0
M  V30 41 H 2.6715 -2.3955 4.7763 0
M  V30 42 H 4.9767 -3.0922 5.2163 0
M  V30 43 H 3.5750 -6.7690 6.8690 0
M  V30 44 H 1.2624 -6.0578 6.5189 0
M  V30 45 H 0.3220 -5.9317 4.2081 0
M  V30 46 H -1.6019 -7.4341 4.1500 0
M  V30 47 H -3.7855 -4.7338 6.6434 0
M  V30 48 H -1.8714 -3.2075 6.6827 0
M  V30 49 H -1.0839 -2.0625 4.1421 0
M  V30 50 H -1.4112 0.3569 4.4877 0
M  V30 51 H -2.6452 0.8090 6.9193 0
M  V30 52 H -4.7811 1.9256 6.6080 0
M  V30 53 C 6.2185 4.2774 -3.6816 0
M  V30 54 C 5.1819 3.3434 -3.6716 0
M  V30 55 C 5.4221 2.0559 -3.2405 0
M  V30 56 C 6.6956 1.6895 -2.8084 0
M  V30 57 N 6.9449 0.3421 -2.4126 0
M  V30 58 C 7.0320 -0.6305 -3.3651 0
M  V30 59 C 7.0542 -0.2730 -4.7285 0
M  V30 60 C 6.9885 -1.2180 -5.7180 0
M  V30 61 C 6.8915 -2.5868 -5.4066 0
M  V30 62 C 6.9553 -2.9431 -4.0474 0
M  V30 63 C 7.0148 -2.0029 -3.0506 0
M  V30 64 C 7.0043 0.1127 -1.0216 0
M  V30 65 C 8.0090 -0.6652 -0.4497 0
M  V30 66 C 8.0153 -0.8900 0.9126 0
M  V30 67 C 7.0284 -0.3288 1.7222 0
M  V30 68 N 7.0272 -0.5998 3.1060 0
M  V30 69 C 7.2903 -1.9372 3.4834 0
M  V30 70 C 6.4479 -2.9467 3.0151 0
M  V30 71 C 6.6435 -4.2533 3.4145 0
M  V30 72 C 7.7371 -4.5786 4.2170 0
M  V30 73 C 8.6093 -3.5762 4.6436 0
M  V30 74 C 8.3640 -2.2574 4.3130 0
M  V30 75 C 6.7999 0.3653 4.0535 0
M  V30 76 C 6.3938 -0.0041 5.3491 0
M  V30 77 C 6.1683 0.9370 6.3196 0
M  V30 78 C 6.3321 2.3063 6.0430 0
M  V30 79 C 6.6634 2.6755 4.7297 0
M  V30 80 C 6.9061 1.7356 3.7599 0
M  V30 81 C 6.0323 0.4628 1.1520 0
M  V30 82 C 6.0265 0.6873 -0.2082 0
M  V30 83 C 7.7139 2.6342 -2.7553 0
M  V30 84 C 7.4763 3.9244 -3.1921 0
M  V30 85 H 4.1931 3.6322 -3.9832 0
M  V30 86 H 4.6268 1.3281 -3.2367 0
M  V30 87 H 7.1070 0.7688 -5.0000 0
M  V30 88 H 6.9676 -0.8861 -6.7417 0
M  V30 89 H 6.9368 -3.9929 -3.7966 0
M  V30 90 H 7.0145 -2.3240 -2.0226 0
M  V30 91 H 8.7972 -1.0728 -1.0632 0
M  V30 92 H 8.7995 -1.4851 1.3529 0
M  V30 93 H 5.6242 -2.6972 2.3648 0
M  V30 94 H 5.9669 -5.0309 3.1038 0
M  V30 95 H 9.4532 -3.8316 5.2655 0
M  V30 96 H 9.0189 -1.4814 4.6773 0
M  V30 97 H 6.2559 -1.0468 5.5831 0
M  V30 98 H 5.8257 0.6100 7.2872 0
M  V30 99 H 6.7723 3.7247 4.5050 0
M  V30 100 H 7.2191 2.0528 2.7790 0
M  V30 101 H 5.2554 0.8785 1.7727 0
M  V30 102 H 5.2496 1.2920 -0.6453 0
M  V30 103 H 8.6938 2.3550 -2.4022 0
M  V30 104 H 8.2797 4.6438 -3.2151 0
M  V30 105 C -4.3594 8.1054 -4.5530 0
M  V30 106 C -3.4067 7.5070 -5.3843 0
M  V30 107 C -2.1160 7.3161 -4.9532 0
M  V30 108 C -1.7225 7.7176 -3.6657 0
M  V30 109 N -0.4284 7.5095 -3.2273 0
M  V30 110 C 0.6530 7.4088 -4.0891 0
M  V30 111 C 0.6864 8.1077 -5.3057 0
M  V30 112 C 1.7065 7.9132 -6.2036 0
M  V30 113 C 2.7430 7.0075 -5.9193 0
M  V30 114 C 2.7789 6.4291 -4.6438 0
M  V30 115 C 1.7582 6.6180 -3.7433 0
M  V30 116 C -0.1449 7.4860 -1.8219 0
M  V30 117 C 0.2391 8.6584 -1.1815 0
M  V30 118 C 0.5068 8.6409 0.1768 0
M  V30 119 C 0.4299 7.4430 0.8767 0
M  V30 120 N 0.6435 7.4459 2.2943 0
M  V30 121 C 1.8722 7.1004 2.8203 0
M  V30 122 C 3.0217 7.0311 2.0158 0
M  V30 123 C 4.2477 6.7020 2.5509 0
M  V30 124 C 4.3849 6.4156 3.9210 0
M  V30 125 C 3.2170 6.3932 4.6900 0
M  V30 126 C 1.9933 6.7133 4.1631 0
M  V30 127 C -0.4590 7.7416 3.0864 0
M  V30 128 C -1.7395 7.3196 2.7019 0
M  V30 129 C -2.7772 7.3773 3.6009 0
M  V30 130 C -2.6042 7.8639 4.9055 0
M  V30 131 C -1.3818 8.4998 5.1934 0
M  V30 132 C -0.3368 8.4340 4.3031 0
M  V30 133 C 0.0832 6.2615 0.2285 0
M  V30 134 C -0.2232 6.2868 -1.1215 0
M  V30 135 C -2.6961 8.2493 -2.8081 0
M  V30 136 C -3.9829 8.4574 -3.2489 0
M  V30 137 H -3.6952 7.2264 -6.3837 0
M  V30 138 H -1.4105 6.8360 -5.6112 0
M  V30 139 H -0.0854 8.8264 -5.5337 0
M  V30 140 H 1.7175 8.4999 -7.1080 0
M  V30 141 H 3.6218 5.8073 -4.3836 0
M  V30 142 H 1.7997 6.1328 -2.7821 0
M  V30 143 H 0.3090 9.5811 -1.7360 0
M  V30 144 H 0.7754 9.5515 0.6887 0
M  V30 145 H 2.9498 7.2553 0.9635 0
M  V30 146 H 5.0969 6.6429 1.8900 0
M  V30 147 H 3.2944 6.1495 5.7313 0
M  V30 148 H 1.1265 6.6603 4.7994 0
M  V30 149 H -1.9073 6.8913 1.7276 0
M  V30 150 H -3.7441 6.9919 3.3234 0
M  V30 151 H -1.2319 9.0336 6.1176 0
M  V30 152 H 0.5951 8.9189 4.5504 0
M  V30 153 H 0.0451 5.3370 0.7829 0
M  V30 154 H -0.5236 5.3860 -1.6331 0
M  V30 155 H -2.4375 8.5200 -1.7975 0
M  V30 156 H -4.7167 8.8545 -2.5659 0
M  V30 157 C -7.2238 4.5662 -4.5117 0
M  V30 158 C -6.4997 5.3224 -3.5778 0
M  V30 159 C -6.1974 4.8344 -2.3337 0
M  V30 160 C -6.6104 3.5450 -1.9579 0
M  V30 161 N -6.3419 3.0881 -0.6867 0
M  V30 162 C -6.2723 3.9999 0.3772 0
M  V30 163 C -7.2185 5.0234 0.4901 0
M  V30 164 C -7.1373 5.9312 1.5189 0
M  V30 165 C -6.0943 5.8551 2.4523 0
M  V30 166 C -5.1785 4.8009 2.3642 0
M  V30 167 C -5.2697 3.8787 1.3434 0
M  V30 168 C -6.3308 1.7131 -0.3817 0
M  V30 169 C -7.0050 1.2560 0.7506 0
M  V30 170 C -7.0531 -0.0928 1.0259 0
M  V30 171 C -6.4259 -1.0037 0.1746 0
M  V30 172 N -6.5183 -2.3796 0.4445 0
M  V30 173 C -6.5320 -2.8018 1.7853 0
M  V30 174 C -5.5929 -2.3130 2.6959 0
M  V30 175 C -5.5525 -2.8126 3.9836 0
M  V30 176 C -6.4374 -3.8218 4.3680 0
M  V30 177 C -7.4328 -4.2426 3.4841 0
M  V30 178 C -7.4849 -3.7316 2.2093 0
M  V30 179 C -6.7262 -3.3053 -0.5583 0
M  V30 180 C -6.3282 -4.6398 -0.3669 0
M  V30 181 C -6.5083 -5.5766 -1.3518 0
M  V30 182 C -7.0723 -5.2233 -2.5883 0
M  V30 183 C -7.4588 -3.8911 -2.7820 0
M  V30 184 C -7.2977 -2.9529 -1.7912 0
M  V30 185 C -5.7010 -0.5406 -0.9258 0
M  V30 186 C -5.6548 0.8098 -1.2029 0
M  V30 187 C -7.2845 2.7571 -2.9059 0
M  V30 188 C -7.5943 3.2581 -4.1456 0
M  V30 189 H -6.1927 6.3165 -3.8587 0
M  V30 190 H -5.6380 5.4420 -1.6414 0
M  V30 191 H -8.0292 5.0896 -0.2183 0
M  V30 192 H -7.9129 6.6714 1.6349 0
M  V30 193 H -4.3701 4.7388 3.0750 0
M  V30 194 H -4.5487 3.0803 1.2679 0
M  V30 195 H -7.5252 1.9558 1.3839 0
M  V30 196 H -7.6116 -0.4494 1.8758 0
M  V30 197 H -4.8805 -1.5668 2.3821 0
M  V30 198 H -4.7958 -2.4803 4.6761 0
M  V30 199 H -8.1802 -4.9384 3.8221 0
M  V30 200 H -8.2631 -4.0513 1.5349 0
M  V30 201 H -5.8556 -4.9325 0.5567 0
M  V30 202 H -6.1430 -6.5776 -1.1934 0
M  V30 203 H -7.9365 -3.6242 -3.7090 0
M  V30 204 H -7.6459 -1.9460 -1.9520 0
M  V30 205 H -5.1752 -1.2400 -1.5547 0
M  V30 206 H -5.0930 1.1731 -2.0475 0
M  V30 207 H -7.6092 1.7629 -2.6444 0
M  V30 208 H -8.1443 2.6279 -4.8236 0
M  V30 209 C 3.3045 -3.9225 -5.8487 0
M  V30 210 C 3.7957 -2.8390 -5.1156 0
M  V30 211 C 3.2916 -1.5753 -5.3126 0
M  V30 212 C 2.2671 -1.3624 -6.2384 0
M  V30 213 N 1.7883 -0.0542 -6.4434 0
M  V30 214 C 2.6976 0.9513 -6.6758 0
M  V30 215 C 3.9508 0.6387 -7.2371 0
M  V30 216 C 4.9430 1.5786 -7.3244 0
M  V30 217 C 4.7408 2.8856 -6.8398 0
M  V30 218 C 3.4399 3.2311 -6.4375 0
M  V30 219 C 2.4405 2.2924 -6.3432 0
M  V30 220 C 0.3985 0.1437 -6.3752 0
M  V30 221 C -0.2541 1.0060 -7.2552 0
M  V30 222 C -1.6255 1.1390 -7.1966 0
M  V30 223 C -2.3676 0.4115 -6.2642 0
M  V30 224 N -3.7707 0.5432 -6.2377 0
M  V30 225 C -4.2709 1.8362 -6.5176 0
M  V30 226 C -3.9082 2.8954 -5.6839 0
M  V30 227 C -4.3275 4.1768 -5.9727 0
M  V30 228 C -5.0417 4.4240 -7.1467 0
M  V30 229 C -5.4192 3.3648 -7.9725 0
M  V30 230 C -5.0671 2.0724 -7.6387 0
M  V30 231 C -4.6194 -0.5362 -6.1599 0
M  V30 232 C -5.9636 -0.3318 -5.8015 0
M  V30 233 C -6.8489 -1.3789 -5.7623 0
M  V30 234 C -6.4255 -2.6882 -6.0488 0
M  V30 235 C -5.0677 -2.9031 -6.3186 0
M  V30 236 C -4.1851 -1.8523 -6.3906 0
M  V30 237 C -1.7101 -0.4222 -5.3587 0
M  V30 238 C -0.3393 -0.5577 -5.4182 0
M  V30 239 C 1.7278 -2.4488 -6.9286 0
M  V30 240 C 2.2468 -3.7138 -6.7421 0
M  V30 241 H 4.5608 -2.9950 -4.3759 0
M  V30 242 H 3.6832 -0.7449 -4.7492 0
M  V30 243 H 4.1258 -0.3533 -7.6220 0
M  V30 244 H 5.8666 1.3118 -7.8108 0
M  V30 245 H 3.2476 4.2552 -6.1601 0
M  V30 246 H 1.4700 2.5791 -5.9716 0
M  V30 247 H 0.3057 1.5384 -8.0075 0
M  V30 248 H -2.1276 1.7822 -7.9010 0
M  V30 249 H -3.3008 2.7066 -4.8134 0
M  V30 250 H -4.0731 5.0063 -5.3332 0
M  V30 251 H -6.0072 3.5580 -8.8565 0
M  V30 252 H -5.3697 1.2531 -8.2722 0
M  V30 253 H -6.2998 0.6625 -5.5552 0
M  V30 254 H -7.8675 -1.1996 -5.4567 0
M  V30 255 H -4.7383 -3.9056 -6.5363 0
M  V30 256 H -3.1622 -2.0412 -6.6716 0
M  V30 257 H -2.2737 -0.9496 -4.6067 0
M  V30 258 H 0.1695 -1.1980 -4.7163 0
M  V30 259 H 0.9319 -2.2915 -7.6389 0
M  V30 260 H 1.8843 -4.5319 -7.3438 0
M  V30 261 C 4.7092 -8.2252 4.0070 0
M  V30 262 C 5.4554 -7.5608 3.0246 0
M  V30 263 C 4.9331 -7.3053 1.7826 0
M  V30 264 C 3.6227 -7.7041 1.4623 0
M  V30 265 N 3.0677 -7.3043 0.2617 0
M  V30 266 C 3.9201 -7.0700 -0.8280 0
M  V30 267 C 4.8818 -8.0225 -1.1802 0
M  V30 268 C 5.7373 -7.7910 -2.2322 0
M  V30 269 C 5.6601 -6.5936 -2.9563 0
M  V30 270 C 4.6733 -5.6607 -2.6221 0
M  V30 271 C 3.8125 -5.8919 -1.5738 0
M  V30 272 C 1.6898 -7.0952 0.0899 0
M  V30 273 C 1.1125 -7.2065 -1.1775 0
M  V30 274 C -0.2349 -6.9901 -1.3597 0
M  V30 275 C -1.0740 -6.7273 -0.2705 0
M  V30 276 N -2.4423 -6.5934 -0.4573 0
M  V30 277 C -3.0111 -6.5643 -1.7650 0
M  V30 278 C -3.5264 -5.3423 -2.1971 0
M  V30 279 C -4.1410 -5.2418 -3.4288 0
M  V30 280 C -4.2255 -6.3654 -4.2515 0
M  V30 281 C -3.6855 -7.5823 -3.8335 0
M  V30 282 C -3.0900 -7.6837 -2.5890 0
M  V30 283 C -3.3772 -6.6820 0.5882 0
M  V30 284 C -3.4064 -5.7660 1.6451 0
M  V30 285 C -4.3353 -5.9013 2.6573 0
M  V30 286 C -5.2746 -6.9393 2.6376 0
M  V30 287 C -5.2435 -7.8538 1.5771 0
M  V30 288 C -4.3199 -7.7162 0.5659 0
M  V30 289 C -0.4901 -6.5992 0.9949 0
M  V30 290 C 0.8692 -6.7424 1.1626 0
M  V30 291 C 2.9062 -8.4471 2.4150 0
M  V30 292 C 3.4348 -8.7040 3.6574 0
M  V30 293 H 6.4636 -7.2637 3.2697 0
M  V30 294 H 5.5249 -6.7699 1.0575 0
M  V30 295 H 4.9422 -8.9518 -0.6353 0
M  V30 296 H 6.4306 -8.5618 -2.5305 0
M  V30 297 H 4.6220 -4.7387 -3.1742 0
M  V30 298 H 3.0695 -5.1571 -1.3067 0
M  V30 299 H 1.7226 -7.4801 -2.0223 0
M  V30 300 H -0.6434 -7.0647 -2.3527 0
M  V30 301 H -3.4362 -4.4779 -1.5600 0
M  V30 302 H -4.5423 -4.3068 -3.7866 0
M  V30 303 H -3.7845 -8.4558 -4.4595 0
M  V30 304 H -2.6930 -8.6325 -2.2621 0
M  V30 305 H -2.7305 -4.9257 1.6512 0
M  V30 306 H -4.3781 -5.1783 3.4563 0
M  V30 307 H -5.9040 -8.7064 1.5768 0
M  V30 308 H -4.2983 -8.4413 -0.2323 0
M  V30 309 H -1.0952 -6.3899 1.8593 0
M  V30 310 H 1.3055 -6.5770 2.1331 0
M  V30 311 H 1.9322 -8.8382 2.1678 0
M  V30 312 H 2.8381 -9.2452 4.3731 0
M  V30 313 Zn 5.9469 5.4273 6.6841 0 CHG=2
M  V30 314 C 5.3309 9.7032 8.8178 0
M  V30 315 C 4.5183 8.6053 9.0404 0
M  V30 316 C 4.6682 7.4774 8.2309 0
M  V30 317 H 3.7853 8.6163 9.8318 0
M  V30 318 N 5.5773 7.4307 7.2433 0
M  V30 319 C 3.7976 6.3398 8.3556 0
M  V30 320 C 6.3332 8.4930 7.0207 0
M  V30 321 C 6.2495 9.6530 7.7769 0
M  V30 322 H 7.0357 8.4209 6.2050 0
M  V30 323 H 6.8899 10.4935 7.5635 0
M  V30 324 H 5.2488 10.5840 9.4360 0
M  V30 325 N 3.9435 5.3094 7.5944 0
M  V30 326 H 2.9738 6.4518 9.0517 0
M  V30 327 C 6.8610 4.8259 11.4726 0
M  V30 328 C 6.5475 3.8077 10.5921 0
M  V30 329 C 6.4825 4.0907 9.2252 0
M  V30 330 H 6.3611 2.8088 10.9533 0
M  V30 331 N 6.6825 5.3293 8.7448 0
M  V30 332 C 6.3269 3.0508 8.2483 0
M  V30 333 C 7.0399 6.2824 9.5901 0
M  V30 334 C 7.1432 6.0852 10.9582 0
M  V30 335 H 7.2744 7.2464 9.1657 0
M  V30 336 H 7.4408 6.8966 11.6027 0
M  V30 337 H 6.9126 4.6459 12.5355 0
M  V30 338 N 6.2464 3.3135 6.9869 0
M  V30 339 H 6.3918 2.0383 8.6318 0
M  V30 340 C 10.3415 6.4504 4.8952 0
M  V30 341 C 9.1731 6.6846 4.1902 0
M  V30 342 C 7.9546 6.3010 4.7542 0
M  V30 343 H 9.2036 7.1596 3.2224 0
M  V30 344 N 7.8896 5.7097 5.9594 0
M  V30 345 C 6.7019 6.5381 4.0760 0
M  V30 346 C 9.0096 5.4795 6.6243 0
M  V30 347 C 10.2597 5.8317 6.1356 0
M  V30 348 H 8.9098 4.9979 7.5842 0
M  V30 349 H 11.1461 5.6307 6.7153 0
M  V30 350 H 11.2989 6.7422 4.4922 0
M  V30 351 N 5.5798 6.1499 4.5752 0
M  V30 352 H 6.7655 7.0882 3.1415 0
M  V30 353 Zn 6.7754 -7.0950 6.1144 0 CHG=2
M  V30 354 C 9.8256 -4.2345 8.6543 0
M  V30 355 C 8.5823 -3.8358 8.1952 0
M  V30 356 C 7.7883 -4.7582 7.5132 0
M  V30 357 H 8.2299 -2.8311 8.3641 0
M  V30 358 N 8.2004 -6.0154 7.2780 0
M  V30 359 C 6.4636 -4.4372 7.0521 0
M  V30 360 C 9.3827 -6.3947 7.7368 0
M  V30 361 C 10.2325 -5.5428 8.4266 0
M  V30 362 H 9.6657 -7.4192 7.5530 0
M  V30 363 H 11.1861 -5.9013 8.7790 0
M  V30 364 H 10.4690 -3.5503 9.1851 0
M  V30 365 N 5.7215 -5.3243 6.4866 0
M  V30 366 H 6.0934 -3.4368 7.2599 0
M  V30 367 C 5.4937 -10.1203 9.6815 0
M  V30 368 C 4.9938 -10.1829 8.3934 0
M  V30 369 C 5.3677 -9.1995 7.4726 0
M  V30 370 H 4.3312 -10.9819 8.0996 0
M  V30 371 N 6.1988 -8.1944 7.8062 0
M  V30 372 C 4.8667 -9.2008 6.1242 0
M  V30 373 C 6.6573 -8.1332 9.0461 0
M  V30 374 C 6.3366 -9.0683 10.0189 0
M  V30 375 H 7.3066 -7.3047 9.2816 0
M  V30 376 H 6.7375 -8.9780 11.0154 0
M  V30 377 H 5.2317 -10.8695 10.4126 0
M  V30 378 N 5.2582 -8.3136 5.2705 0
M  V30 379 H 4.1565 -9.9816 5.8713 0
M  V30 380 C 10.6287 -9.8143 4.8714 0
M  V30 381 C 10.4774 -8.4932 4.4787 0
M  V30 382 C 9.2962 -7.8279 4.8006 0
M  V30 383 H 11.2605 -7.9891 3.9344 0
M  V30 384 N 8.3019 -8.4230 5.4783 0
M  V30 385 C 9.0679 -6.4549 4.4100 0
M  V30 386 C 8.4463 -9.6877 5.8360 0
M  V30 387 C 9.5898 -10.4261 5.5577 0
M  V30 388 H 7.6247 -10.1397 6.3700 0
M  V30 389 H 9.6656 -11.4530 5.8771 0
M  V30 390 H 11.5342 -10.3568 4.6475 0
M  V30 391 N 7.9267 -5.9134 4.6005 0
M  V30 392 H 9.8870 -5.9269 3.9281 0
M  V30 393 Zn -5.9842 -6.6220 5.7464 0 CHG=2
M  V30 394 C -5.6432 -11.4883 6.0498 0
M  V30 395 C -4.6025 -10.6472 5.6984 0
M  V30 396 C -4.8007 -9.2661 5.7524 0
M  V30 397 H -3.6510 -11.0522 5.3924 0
M  V30 398 N -5.9779 -8.7281 6.1140 0
M  V30 399 C -3.7255 -8.3436 5.5059 0
M  V30 400 C -6.9558 -9.5402 6.4819 0
M  V30 401 C -6.8406 -10.9228 6.4675 0
M  V30 402 H -7.8735 -9.0820 6.8166 0
M  V30 403 H -7.6683 -11.5388 6.7801 0
M  V30 404 H -5.5273 -12.5607 6.0171 0
M  V30 405 N -3.9075 -7.0696 5.5603 0
M  V30 406 H -2.7443 -8.7823 5.3543 0
M  V30 407 C -6.1162 -4.8981 10.3033 0
M  V30 408 C -6.2379 -4.0839 9.1857 0
M  V30 409 C -6.1462 -4.6632 7.9231 0
M  V30 410 H -6.4103 -3.0250 9.2954 0
M  V30 411 N -5.9288 -5.9810 7.7560 0
M  V30 412 C -6.3006 -3.8943 6.7024 0
M  V30 413 C -5.8056 -6.7506 8.8233 0
M  V30 414 C -5.8951 -6.2549 10.1197 0
M  V30 415 H -5.6271 -7.8001 8.6464 0
M  V30 416 H -5.7935 -6.9208 10.9613 0
M  V30 417 H -6.1905 -4.4866 11.2979 0
M  V30 418 N -6.2994 -4.5044 5.5797 0
M  V30 419 H -6.4450 -2.8198 6.7836 0
M  V30 420 C -10.6207 -7.8671 5.2534 0
M  V30 421 C -9.6753 -7.9849 4.2478 0
M  V30 422 C -8.3982 -7.4651 4.4587 0
M  V30 423 H -9.9215 -8.4742 3.3188 0
M  V30 424 N -8.0632 -6.8526 5.6074 0
M  V30 425 C -7.3824 -7.4930 3.4385 0
M  V30 426 C -8.9769 -6.7248 6.5553 0
M  V30 427 C -10.2698 -7.2136 6.4272 0
M  V30 428 H -8.6692 -6.2119 7.4532 0
M  V30 429 H -10.9821 -7.0906 7.2269 0
M  V30 430 H -11.6141 -8.2687 5.1256 0
M  V30 431 N -6.2182 -6.9912 3.6598 0
M  V30 432 H -7.6740 -7.8858 2.4704 0
M  V30 433 Zn -5.5191 6.5289 5.5699 0 CHG=2
M  V30 434 C -9.8530 4.4527 4.8589 0
M  V30 435 C -8.6618 3.7474 4.8893 0
M  V30 436 C -7.4855 4.4247 5.2117 0
M  V30 437 H -8.6434 2.6909 4.6751 0
M  V30 438 N -7.4741 5.7437 5.4765 0
M  V30 439 C -6.2185 3.7486 5.3132 0
M  V30 440 C -8.6182 6.4073 5.4626 0
M  V30 441 C -9.8330 5.8075 5.1607 0
M  V30 442 H -8.5696 7.4576 5.7025 0
M  V30 443 H -10.7389 6.3921 5.1685 0
M  V30 444 H -10.7838 3.9647 4.6152 0
M  V30 445 N -5.1275 4.4049 5.5258 0
M  V30 446 H -6.2283 2.6679 5.2059 0
M  V30 447 C -5.1990 7.1989 10.3159 0
M  V30 448 C -4.2849 7.7092 9.4099 0
M  V30 449 C -4.4059 7.3686 8.0600 0
M  V30 450 H -3.4980 8.3702 9.7380 0
M  V30 451 N -5.3807 6.5537 7.6250 0
M  V30 452 C -3.4693 7.8536 7.0784 0
M  V30 453 C -6.2413 6.0547 8.4980 0
M  V30 454 C -6.1940 6.3468 9.8532 0
M  V30 455 H -6.9999 5.3978 8.1013 0
M  V30 456 H -6.9184 5.9255 10.5311 0
M  V30 457 H -5.1379 7.4566 11.3621 0
M  V30 458 N -3.5946 7.5635 5.8295 0
M  V30 459 H -2.6455 8.4422 7.4673 0
M  V30 460 C -6.9109 11.2092 5.0491 0
M  V30 461 C -6.7599 10.3211 3.9981 0
M  V30 462 C -6.4407 8.9916 4.2780 0
M  V30 463 H -6.8909 10.6509 2.9797 0
M  V30 464 N -6.2573 8.5482 5.5318 0
M  V30 465 C -6.3571 8.0078 3.2336 0
M  V30 466 C -6.4247 9.3989 6.5302 0
M  V30 467 C -6.7533 10.7348 6.3438 0
M  V30 468 H -6.3075 9.0103 7.5293 0
M  V30 469 H -6.8864 11.3845 7.1938 0
M  V30 470 H -7.1587 12.2442 4.8713 0
M  V30 471 N -5.9814 6.7997 3.4719 0
M  V30 472 H -6.6413 8.3315 2.2370 0
M  V30 473 Zn 5.7015 5.9127 -6.3961 0 CHG=2
M  V30 474 C 6.4078 10.2698 -4.2842 0
M  V30 475 C 6.4992 9.0747 -3.5855 0
M  V30 476 C 6.2746 7.8821 -4.2672 0
M  V30 477 H 6.7417 9.0703 -2.5348 0
M  V30 478 N 5.9595 7.8539 -5.5726 0
M  V30 479 C 6.3923 6.5895 -3.6297 0
M  V30 480 C 5.8778 8.9951 -6.2349 0
M  V30 481 C 6.0973 10.2295 -5.6352 0
M  V30 482 H 5.6360 8.9288 -7.2845 0
M  V30 483 H 6.0307 11.1339 -6.2182 0
M  V30 484 H 6.5819 11.2141 -3.7922 0
M  V30 485 N 6.0054 5.5401 -4.2494 0
M  V30 486 H 6.8090 6.5474 -2.6273 0
M  V30 487 C 10.4187 4.8227 -6.3153 0
M  V30 488 C 9.4040 3.8988 -6.4780 0
M  V30 489 C 8.0776 4.3406 -6.4899 0
M  V30 490 H 9.6301 2.8522 -6.6048 0
M  V30 491 N 7.7640 5.6374 -6.3191 0
M  V30 492 C 6.9888 3.4304 -6.6832 0
M  V30 493 C 8.7437 6.5171 -6.1717 0
M  V30 494 C 10.0827 6.1631 -6.1649 0
M  V30 495 H 8.4498 7.5477 -6.0586 0
M  V30 496 H 10.8434 6.9179 -6.0498 0
M  V30 497 H 11.4530 4.5151 -6.3104 0
M  V30 498 N 5.7514 3.8149 -6.6821 0
M  V30 499 H 7.2667 2.3913 -6.8144 0
M  V30 500 C 5.6012 6.6547 -11.2126 0
M  V30 501 C 4.5231 6.8699 -10.3720 0
M  V30 502 C 4.6770 6.6420 -9.0026 0
M  V30 503 H 3.5805 7.2143 -10.7673 0
M  V30 504 N 5.8358 6.2106 -8.4786 0
M  V30 505 C 3.6037 6.8958 -8.0780 0
M  V30 506 C 6.8598 6.0033 -9.2897 0
M  V30 507 C 6.7961 6.2135 -10.6600 0
M  V30 508 H 7.7777 5.6598 -8.8395 0
M  V30 509 H 7.6618 6.0399 -11.2785 0
M  V30 510 H 5.5184 6.8293 -12.2743 0
M  V30 511 N 3.7427 6.6704 -6.8167 0
M  V30 512 H 2.6882 7.2936 -8.5034 0
M  V30 513 Zn 5.9973 -5.5935 -5.9954 0 CHG=2
M  V30 514 C 5.8257 -5.0787 -10.7959 0
M  V30 515 C 6.2940 -4.1129 -9.9247 0
M  V30 516 C 6.2068 -4.3392 -8.5469 0
M  V30 517 H 6.7305 -3.2008 -10.3004 0
M  V30 518 N 5.6736 -5.4698 -8.0503 0
M  V30 519 C 6.6677 -3.3643 -7.5985 0
M  V30 520 C 5.2176 -6.3846 -8.8925 0
M  V30 521 C 5.2683 -6.2381 -10.2695 0
M  V30 522 H 4.7933 -7.2732 -8.4526 0
M  V30 523 H 4.8883 -7.0121 -10.9163 0
M  V30 524 H 5.8902 -4.9364 -11.8637 0
M  V30 525 N 6.5993 -3.5742 -6.3241 0
M  V30 526 H 7.0678 -2.4493 -8.0197 0
M  V30 527 C 10.6833 -7.0132 -6.2336 0
M  V30 528 C 9.9091 -7.0985 -5.0897 0
M  V30 529 C 8.5789 -6.6764 -5.1404 0
M  V30 530 H 10.3244 -7.4887 -4.1739 0
M  V30 531 N 8.0280 -6.1826 -6.2618 0
M  V30 532 C 7.7133 -6.7940 -3.9978 0
M  V30 533 C 8.7761 -6.1052 -7.3496 0
M  V30 534 C 10.1035 -6.5086 -7.3898 0
M  V30 535 H 8.3087 -5.7121 -8.2386 0
M  V30 536 H 10.6675 -6.4341 -8.3055 0
M  V30 537 H 11.7131 -7.3357 -6.2314 0
M  V30 538 N 6.5140 -6.3271 -4.0204 0
M  V30 539 H 8.1195 -7.2981 -3.1261 0
M  V30 540 C 3.7611 -9.9256 -5.5858 0
M  V30 541 C 3.0921 -8.7136 -5.5196 0
M  V30 542 C 3.8129 -7.5374 -5.7129 0
M  V30 543 H 2.0322 -8.6810 -5.3248 0
M  V30 544 N 5.1360 -7.5449 -5.9496 0
M  V30 545 C 3.1917 -6.2342 -5.7032 0
M  V30 546 C 5.7666 -8.7043 -6.0244 0
M  V30 547 C 5.1229 -9.9223 -5.8510 0
M  V30 548 H 6.8238 -8.6643 -6.2358 0
M  V30 549 H 5.6799 -10.8422 -5.9286 0
M  V30 550 H 3.2384 -10.8586 -5.4435 0
M  V30 551 N 3.9122 -5.1718 -5.7132 0
M  V30 552 H 2.1057 -6.1899 -5.6836 0
M  V30 553 Zn -7.0032 -5.8425 -5.7147 0 CHG=2
M  V30 554 C -7.6308 -10.6590 -5.1006 0
M  V30 555 C -7.6265 -9.7298 -4.0769 0
M  V30 556 C -7.3675 -8.3894 -4.3763 0
M  V30 557 H -7.8309 -10.0315 -3.0620 0
M  V30 558 N -7.1089 -7.9787 -5.6303 0
M  V30 559 C -7.3667 -7.3829 -3.3532 0
M  V30 560 C -7.1201 -8.8763 -6.6042 0
M  V30 561 C -7.3716 -10.2230 -6.3942 0
M  V30 562 H -6.9257 -8.5136 -7.6005 0
M  V30 563 H -7.3701 -10.9121 -7.2230 0
M  V30 564 H -7.8343 -11.7005 -4.9046 0
M  V30 565 N -7.1928 -6.1332 -3.6249 0
M  V30 566 H -7.5360 -7.7281 -2.3384 0
M  V30 567 C -11.7130 -5.4208 -6.9047 0
M  V30 568 C -10.8095 -4.3742 -6.9001 0
M  V30 569 C -9.4964 -4.6132 -6.4839 0
M  V30 570 H -11.1127 -3.3882 -7.2151 0
M  V30 571 N -9.0843 -5.8306 -6.0898 0
M  V30 572 C -8.5201 -3.5592 -6.4648 0
M  V30 573 C -9.9587 -6.8235 -6.0910 0
M  V30 574 C -11.2794 -6.6728 -6.4871 0
M  V30 575 H -9.6058 -7.7885 -5.7647 0
M  V30 576 H -11.9517 -7.5153 -6.4714 0
M  V30 577 H -12.7333 -5.2722 -7.2233 0
M  V30 578 N -7.3007 -3.7623 -6.0880 0
M  V30 579 H -8.8599 -2.5841 -6.8012 0
M  V30 580 C -5.2326 -6.7387 -10.1837 0
M  V30 581 C -4.4983 -6.9208 -9.0205 0
M  V30 582 C -5.0705 -6.5581 -7.8041 0
M  V30 583 H -3.5046 -7.3381 -9.0589 0
M  V30 584 N -6.3042 -6.0314 -7.7235 0
M  V30 585 C -4.3712 -6.7084 -6.5448 0
M  V30 586 C -6.9955 -5.8520 -8.8352 0
M  V30 587 C -6.5037 -6.1919 -10.0904 0
M  V30 588 H -7.9805 -5.4238 -8.7300 0
M  V30 589 H -7.1071 -6.0351 -10.9699 0
M  V30 590 H -4.8258 -7.0169 -11.1435 0
M  V30 591 N -4.8877 -6.2339 -5.4766 0
M  V30 592 H -3.3985 -7.1934 -6.5568 0
M  V30 593 Zn -6.7740 7.0408 -6.4591 0 CHG=2
M  V30 594 C -9.9064 10.4213 -4.9330 0
M  V30 595 C -8.5671 10.4059 -4.5815 0
M  V30 596 C -7.7793 9.3225 -4.9748 0
M  V30 597 H -8.1378 11.2199 -4.0185 0
M  V30 598 N -8.2793 8.2998 -5.6880 0
M  V30 599 C -6.3861 9.2303 -4.6128 0
M  V30 600 C -9.5650 8.3099 -5.9989 0
M  V30 601 C -10.4194 9.3448 -5.6442 0
M  V30 602 H -9.9400 7.4618 -6.5497 0
M  V30 603 H -11.4604 9.3106 -5.9220 0
M  V30 604 H -10.5416 11.2478 -4.6539 0
M  V30 605 N -5.6601 8.2505 -5.0217 0
M  V30 606 H -5.9900 10.0199 -3.9798 0
M  V30 607 C -5.1838 9.5226 -10.3381 0
M  V30 608 C -4.9636 8.1671 -10.1449 0
M  V30 609 C -5.3399 7.5932 -8.9330 0
M  V30 610 H -4.5104 7.5682 -10.9190 0
M  V30 611 N -5.9073 8.3103 -7.9493 0
M  V30 612 C -5.1064 6.1983 -8.6350 0
M  V30 613 C -6.0993 9.6049 -8.1334 0
M  V30 614 C -5.7552 10.2587 -9.3101 0
M  V30 615 H -6.5473 10.1482 -7.3154 0
M  V30 616 H -5.9369 11.3157 -9.4191 0
M  V30 617 H -4.9139 9.9979 -11.2684 0
M  V30 618 N -5.3477 5.7535 -7.4599 0
M  V30 619 H -4.6674 5.5796 -9.4134 0
M  V30 620 C -9.8071 5.3311 -9.9092 0
M  V30 621 C -9.4509 4.6388 -8.7675 0
M  V30 622 C -8.6108 5.2532 -7.8340 0
M  V30 623 H -9.8222 3.6413 -8.5939 0
M  V30 624 N -8.1188 6.4890 -8.0286 0
M  V30 625 C -8.2681 4.6042 -6.6013 0
M  V30 626 C -8.4901 7.1551 -9.1115 0
M  V30 627 C -9.3280 6.6245 -10.0788 0
M  V30 628 H -8.1154 8.1609 -9.2155 0
M  V30 629 H -9.6005 7.2112 -10.9410 0
M  V30 630 H -10.4540 4.8873 -10.6501 0
M  V30 631 N -7.5184 5.1735 -5.7160 0
M  V30 632 H -8.7088 3.6250 -6.4540 0
M  V30 END ATOM
M  V30 BEGIN BOND
M  V30 1 2 1 2
M  V30 2 1 2 3
M  V30 3 2 3 4
M  V30 4 1 4 5
M  V30 5 1 5 6
M  V30 6 2 6 7
M  V30 7 1 7 8
M  V30 8 2 8 9
M  V30 9 1 9 10
M  V30 10 2 10 11
M  V30 11 1 5 12
M  V30 12 2 12 13
M  V30 13 1 13 14
M  V30 14 2 14 15
M  V30 15 1 15 16
M  V30 16 1 16 17
M  V30 17 2 17 18
M  V30 18 1 18 19
M  V30 19 2 19 20
M  V30 20 1 20 21
M  V30 21 2 21 22
M  V30 22 1 16 23
M  V30 23 2 23 24
M  V30 24 1 24 25
M  V30 25 2 25 26
M  V30 26 1 26 27
M  V30 27 2 27 28
M  V30 28 1 15 29
M  V30 29 2 29 30
M  V30 30 1 4 31
M  V30 31 2 31 32
M  V30 32 1 32 1
M  V30 33 1 11 6
M  V30 34 1 30 12
M  V30 35 1 22 17
M  V30 36 1 28 23
M  V30 37 1 2 33
M  V30 38 1 3 34
M  V30 39 1 7 35
M  V30 40 1 8 36
M  V30 41 1 10 37
M  V30 42 1 11 38
M  V30 43 1 13 39
M  V30 44 1 14 40
M  V30 45 1 18 41
M  V30 46 1 19 42
M  V30 47 1 21 43
M  V30 48 1 22 44
M  V30 49 1 24 45
M  V30 50 1 25 46
M  V30 51 1 27 47
M  V30 52 1 28 48
M  V30 53 1 29 49
M  V30 54 1 30 50
M  V30 55 1 31 51
M  V30 56 1 32 52
M  V30 57 2 53 54
M  V30 58 1 54 55
M  V30 59 2 55 56
M  V30 60 1 56 57
M  V30 61 1 57 58
M  V30 62 2 58 59
M  V30 63 1 59 60
M  V30 64 2 60 61
M  V30 65 1 61 62
M  V30 66 2 62 63
M  V30 67 1 57 64
M  V30 68 2 64 65
M  V30 69 1 65 66
M  V30 70 2 66 67
M  V30 71 1 67 68
M  V30 72 1 68 69
M  V30 73 2 69 70
M  V30 74 1 70 71
M  V30 75 2 71 72
M  V30 76 1 72 73
M  V30 77 2 73 74
M  V30 78 1 68 75
M  V30 79 2 75 76
M  V30 80 1 76 77
M  V30 81 2 77 78
M  V30 82 1 78 79
M  V30 83 2 79 80
M  V30 84 1 67 81
M  V30 85 2 81 82
M  V30 86 1 56 83
M  V30 87 2 83 84
M  V30 88 1 84 53
M  V30 89 1 63 58
M  V30 90 1 82 64
M  V30 91 1 74 69
M  V30 92 1 80 75
M  V30 93 1 54 85
M  V30 94 1 55 86
M  V30 95 1 59 87
M  V30 96 1 60 88
M  V30 97 1 62 89
M  V30 98 1 63 90
M  V30 99 1 65 91
M  V30 100 1 66 92
M  V30 101 1 70 93
M  V30 102 1 71 94
M  V30 103 1 73 95
M  V30 104 1 74 96
M  V30 105 1 76 97
M  V30 106 1 77 98
M  V30 107 1 79 99
M  V30 108 1 80 100
M  V30 109 1 81 101
M  V30 110 1 82 102
M  V30 111 1 83 103
M  V30 112 1 84 104
M  V30 113 2 105 106
M  V30 114 1 106 107
M  V30 115 2 107 108
M  V30 116 1 108 109
M  V30 117 1 109 110
M  V30 118 2 110 111
M  V30 119 1 111 112
M  V30 120 2 112 113
M  V30 121 1 113 114
M  V30 122 2 114 115
M  V30 123 1 109 116
M  V30 124 2 116 117
M  V30 125 1 117 118
M  V30 126 2 118 119
M  V30 127 1 119 120
M  V30 128 1 120 121
M  V30 129 2 121 122
M  V30 130 1 122 123
M  V30 131 2 123 124
M  V30 132 1 124 125
M  V30 133 2 125 126
M  V30 134 1 120 127
M  V30 135 2 127 128
M  V30 136 1 128 129
M  V30 137 2 129 130
M  V30 138 1 130 131
M  V30 139 2 131 132
M  V30 140 1 119 133
M  V30 141 2 133 134
M  V30 142 1 108 135
M  V30 143 2 135 136
M  V30 144 1 136 105
M  V30 145 1 115 110
M  V30 146 1 134 116
M  V30 147 1 126 121
M  V30 148 1 132 127
M  V30 149 1 106 137
M  V30 150 1 107 138
M  V30 151 1 111 139
M  V30 152 1 112 140
M  V30 153 1 114 141
M  V30 154 1 115 142
M  V30 155 1 117 143
M  V30 156 1 118 144
M  V30 157 1 122 145
M  V30 158 1 123 146
M  V30 159 1 125 147
M  V30 160 1 126 148
M  V30 161 1 128 149
M  V30 162 1 129 150
M  V30 163 1 131 151
M  V30 164 1 132 152
M  V30 165 1 133 153
M  V30 166 1 134 154
M  V30 167 1 135 155
M  V30 168 1 136 156
M  V30 169 2 157 158
M  V30 170 1 158 159
M  V30 171 2 159 160
M  V30 172 1 160 161
M  V30 173 1 161 162
M  V30 174 2 162 163
M  V30 175 1 163 164
M  V30 176 2 164 165
M  V30 177 1 165 166
M  V30 178 2 166 167
M  V30 179 1 161 168
M  V30 180 2 168 169
M  V30 181 1 169 170
M  V30 182 2 170 171
M  V30 183 1 171 172
M  V30 184 1 172 173
M  V30 185 2 173 174
M  V30 186 1 174 175
M  V30 187 2 175 176
M  V30 188 1 176 177
M  V30 189 2 177 178
M  V30 190 1 172 179
M  V30 191 2 179 180
M  V30 192 1 180 181
M  V30 193 2 181 182
M  V30 194 1 182 183
M  V30 195 2 183 184
M  V30 196 1 171 185
M  V30 197 2 185 186
M  V30 198 1 160 187
M  V30 199 2 187 188
M  V30 200 1 188 157
M  V30 201 1 167 162
M  V30 202 1 186 168
M  V30 203 1 178 173
M  V30 204 1 184 179
M  V30 205 1 158 189
M  V30 206 1 159 190
M  V30 207 1 163 191
M  V30 208 1 164 192
M  V30 209 1 166 193
M  V30 210 1 167 194
M  V30 211 1 169 195
M  V30 212 1 170 196
M  V30 213 1 174 197
M  V30 214 1 175 198
M  V30 215 1 177 199
M  V30 216 1 178 200
M  V30 217 1 180 201
M  V30 218 1 181 202
M  V30 219 1 183 203
M  V30 220 1 184 204
M  V30 221 1 185 205
M  V30 222 1 186 206
M  V30 223 1 187 207
M  V30 224 1 188 208
M  V30 225 2 209 210
M  V30 226 1 210 211
M  V30 227 2 211 212
M  V30 228 1 212 213
M  V30 229 1 213 214
M  V30 230 2 214 215
M  V30 231 1 215 216
M  V30 232 2 216 217
M  V30 233 1 217 218
M  V30 234 2 218 219
M  V30 235 1 213 220
M  V30 236 2 220 221
M  V30 237 1 221 222
M  V30 238 2 222 223
M  V30 239 1 223 224
M  V30 240 1 224 225
M  V30 241 2 225 226
M  V30 242 1 226 227
M  V30 243 2 227 228
M  V30 244 1 228 229
M  V30 245 2 229 230
M  V30 246 1 224 231
M  V30 247 2 231 232
M  V30 248 1 232 233
M  V30 249 2 233 234
M  V30 250 1 234 235
M  V30 251 2 235 236
M  V30 252 1 223 237
M  V30 253 2 237 238
M  V30 254 1 212 239
M  V30 255 2 239 240
M  V30 256 1 240 209
M  V30 257 1 219 214
M  V30 258 1 238 220
M  V30 259 1 230 225
M  V30 260 1 236 231
M  V30 261 1 210 241
M  V30 262 1 211 242
M  V30 263 1 215 243
M  V30 264 1 216 244
M  V30 265 1 218 245
M  V30 266 1 219 246
M  V30 267 1 221 247
M  V30 268 1 222 248
M  V30 269 1 226 249
M  V30 270 1 227 250
M  V30 271 1 229 251
M  V30 272 1 230 252
M  V30 273 1 232 253
M  V30 274 1 233 254
M  V30 275 1 235 255
M  V30 276 1 236 256
M  V30 277 1 237 257
M  V30 278 1 238 258
M  V30 279 1 239 259
M  V30 280 1 240 260
M  V30 281 2 261 262
M  V30 282 1 262 263
M  V30 283 2 263 264
M  V30 284 1 264 265
M  V30 285 1 265 266
M  V30 286 2 266 267
M  V30 287 1 267 268
M  V30 288 2 268 269
M  V30 289 1 269 270
M  V30 290 2 270 271
M  V30 291 1 265 272
M  V30 292 2 272 273
M  V30 293 1 273 274
M  V30 294 2 274 275
M  V30 295 1 275 276
M  V30 296 1 276 277
M  V30 297 2 277 278
M  V30 298 1 278 279
M  V30 299 2 279 280
M  V30 300 1 280 281
M  V30 301 2 281 282
M  V30 302 1 276 283
M  V30 303 2 283 284
M  V30 304 1 284 285
M  V30 305 2 285 286
M  V30 306 1 286 287
M  V30 307 2 287 288
M  V30 308 1 275 289
M  V30 309 2 289 290
M  V30 310 1 264 291
M  V30 311 2 291 292
M  V30 312 1 292 261
M  V30 313 1 271 266
M  V30 314 1 290 272
M  V30 315 1 282 277
M  V30 316 1 288 283
M  V30 317 1 262 293
M  V30 318 1 263 294
M  V30 319 1 267 295
M  V30 320 1 268 296
M  V30 321 1 270 297
M  V30 322 1 271 298
M  V30 323 1 273 299
M  V30 324 1 274 300
M  V30 325 1 278 301
M  V30 326 1 279 302
M  V30 327 1 281 303
M  V30 328 1 282 304
M  V30 329 1 284 305
M  V30 330 1 285 306
M  V30 331 1 287 307
M  V30 332 1 288 308
M  V30 333 1 289 309
M  V30 334 1 290 310
M  V30 335 1 291 311
M  V30 336 1 292 312
M  V30 337 1 314 324
M  V30 338 2 314 321
M  V30 339 1 315 314
M  V30 340 2 316 315
M  V30 341 1 316 318
M  V30 342 1 317 315
M  V30 343 2 318 320
M  V30 344 1 319 316
M  V30 345 1 320 321
M  V30 346 1 320 322
M  V30 347 1 321 323
M  V30 348 2 325 319
M  V30 349 1 326 319
M  V30 350 1 327 337
M  V30 351 2 327 334
M  V30 352 1 328 327
M  V30 353 2 329 328
M  V30 354 1 329 331
M  V30 355 1 330 328
M  V30 356 2 331 333
M  V30 357 1 332 329
M  V30 358 1 333 334
M  V30 359 1 333 335
M  V30 360 1 334 336
M  V30 361 2 338 332
M  V30 362 1 339 332
M  V30 363 1 340 350
M  V30 364 2 340 347
M  V30 365 1 341 340
M  V30 366 2 342 341
M  V30 367 1 342 344
M  V30 368 1 343 341
M  V30 369 2 344 346
M  V30 370 1 345 342
M  V30 371 1 346 347
M  V30 372 1 346 348
M  V30 373 1 347 349
M  V30 374 2 351 345
M  V30 375 1 352 345
M  V30 376 9 325 313
M  V30 377 9 318 313
M  V30 378 9 351 313
M  V30 379 9 344 313
M  V30 380 9 338 313
M  V30 381 9 331 313
M  V30 382 1 354 364
M  V30 383 2 354 361
M  V30 384 1 355 354
M  V30 385 2 356 355
M  V30 386 1 356 358
M  V30 387 1 357 355
M  V30 388 2 358 360
M  V30 389 1 359 356
M  V30 390 1 360 361
M  V30 391 1 360 362
M  V30 392 1 361 363
M  V30 393 2 365 359
M  V30 394 1 366 359
M  V30 395 1 367 377
M  V30 396 2 367 374
M  V30 397 1 368 367
M  V30 398 2 369 368
M  V30 399 1 369 371
M  V30 400 1 370 368
M  V30 401 2 371 373
M  V30 402 1 372 369
M  V30 403 1 373 374
M  V30 404 1 373 375
M  V30 405 1 374 376
M  V30 406 2 378 372
M  V30 407 1 379 372
M  V30 408 1 380 390
M  V30 409 2 380 387
M  V30 410 1 381 380
M  V30 411 2 382 381
M  V30 412 1 382 384
M  V30 413 1 383 381
M  V30 414 2 384 386
M  V30 415 1 385 382
M  V30 416 1 386 387
M  V30 417 1 386 388
M  V30 418 1 387 389
M  V30 419 2 391 385
M  V30 420 1 392 385
M  V30 421 9 365 353
M  V30 422 9 358 353
M  V30 423 9 391 353
M  V30 424 9 384 353
M  V30 425 9 378 353
M  V30 426 9 371 353
M  V30 427 1 394 404
M  V30 428 2 394 401
M  V30 429 1 395 394
M  V30 430 2 396 395
M  V30 431 1 396 398
M  V30 432 1 397 395
M  V30 433 2 398 400
M  V30 434 1 399 396
M  V30 435 1 400 401
M  V30 436 1 400 402
M  V30 437 1 401 403
M  V30 438 2 405 399
M  V30 439 1 406 399
M  V30 440 1 407 417
M  V30 441 2 407 414
M  V30 442 1 408 407
M  V30 443 2 409 408
M  V30 444 1 409 411
M  V30 445 1 410 408
M  V30 446 2 411 413
M  V30 447 1 412 409
M  V30 448 1 413 414
M  V30 449 1 413 415
M  V30 450 1 414 416
M  V30 451 2 418 412
M  V30 452 1 419 412
M  V30 453 1 420 430
M  V30 454 2 420 427
M  V30 455 1 421 420
M  V30 456 2 422 421
M  V30 457 1 422 424
M  V30 458 1 423 421
M  V30 459 2 424 426
M  V30 460 1 425 422
M  V30 461 1 426 427
M  V30 462 1 426 428
M  V30 463 1 427 429
M  V30 464 2 431 425
M  V30 465 1 432 425
M  V30 466 9 405 393
M  V30 467 9 398 393
M  V30 468 9 431 393
M  V30 469 9 424 393
M  V30 470 9 418 393
M  V30 471 9 411 393
M  V30 472 1 434 444
M  V30 473 2 434 441
M  V30 474 1 435 434
M  V30 475 2 436 435
M  V30 476 1 436 438
M  V30 477 1 437 435
M  V30 478 2 438 440
M  V30 479 1 439 436
M  V30 480 1 440 441
M  V30 481 1 440 442
M  V30 482 1 441 443
M  V30 483 2 445 439
M  V30 484 1 446 439
M  V30 485 1 447 457
M  V30 486 2 447 454
M  V30 487 1 448 447
M  V30 488 2 449 448
M  V30 489 1 449 451
M  V30 490 1 450 448
M  V30 491 2 451 453
M  V30 492 1 452 449
M  V30 493 1 453 454
M  V30 494 1 453 455
M  V30 495 1 454 456
M  V30 496 2 458 452
M  V30 497 1 459 452
M  V30 498 1 460 470
M  V30 499 2 460 467
M  V30 500 1 461 460
M  V30 501 2 462 461
M  V30 502 1 462 464
M  V30 503 1 463 461
M  V30 504 2 464 466
M  V30 505 1 465 462
M  V30 506 1 466 467
M  V30 507 1 466 468
M  V30 508 1 467 469
M  V30 509 2 471 465
M  V30 510 1 472 465
M  V30 511 9 445 433
M  V30 512 9 438 433
M  V30 513 9 471 433
M  V30 514 9 464 433
M  V30 515 9 458 433
M  V30 516 9 451 433
M  V30 517 1 474 484
M  V30 518 2 474 481
M  V30 519 1 475 474
M  V30 520 2 476 475
M  V30 521 1 476 478
M  V30 522 1 477 475
M  V30 523 2 478 480
M  V30 524 1 479 476
M  V30 525 1 480 481
M  V30 526 1 480 482
M  V30 527 1 481 483
M  V30 528 2 485 479
M  V30 529 1 486 479
M  V30 530 1 487 497
M  V30 531 2 487 494
M  V30 532 1 488 487
M  V30 533 2 489 488
M  V30 534 1 489 491
M  V30 535 1 490 488
M  V30 536 2 491 493
M  V30 537 1 492 489
M  V30 538 1 493 494
M  V30 539 1 493 495
M  V30 540 1 494 496
M  V30 541 2 498 492
M  V30 542 1 499 492
M  V30 543 1 500 510
M  V30 544 2 500 507
M  V30 545 1 501 500
M  V30 546 2 502 501
M  V30 547 1 502 504
M  V30 548 1 503 501
M  V30 549 2 504 506
M  V30 550 1 505 502
M  V30 551 1 506 507
M  V30 552 1 506 508
M  V30 553 1 507 509
M  V30 554 2 511 505
M  V30 555 1 512 505
M  V30 556 9 485 473
M  V30 557 9 478 473
M  V30 558 9 511 473
M  V30 559 9 504 473
M  V30 560 9 498 473
M  V30 561 9 491 473
M  V30 562 1 514 524
M  V30 563 2 514 521
M  V30 564 1 515 514
M  V30 565 2 516 515
M  V30 566 1 516 518
M  V30 567 1 517 515
M  V30 568 2 518 520
M  V30 569 1 519 516
M  V30 570 1 520 521
M  V30 571 1 520 522
M  V30 572 1 521 523
M  V30 573 2 525 519
M  V30 574 1 526 519
M  V30 575 1 527 537
M  V30 576 2 527 534
M  V30 577 1 528 527
M  V30 578 2 529 528
M  V30 579 1 529 531
M  V30 580 1 530 528
M  V30 581 2 531 533
M  V30 582 1 532 529
M  V30 583 1 533 534
M  V30 584 1 533 535
M  V30 585 1 534 536
M  V30 586 2 538 532
M  V30 587 1 539 532
M  V30 588 1 540 550
M  V30 589 2 540 547
M  V30 590 1 541 540
M  V30 591 2 542 541
M  V30 592 1 542 544
M  V30 593 1 543 541
M  V30 594 2 544 546
M  V30 595 1 545 542
M  V30 596 1 546 547
M  V30 597 1 546 548
M  V30 598 1 547 549
M  V30 599 2 551 545
M  V30 600 1 552 545
M  V30 601 9 525 513
M  V30 602 9 518 513
M  V30 603 9 551 513
M  V30 604 9 544 513
M  V30 605 9 538 513
M  V30 606 9 531 513
M  V30 607 1 554 564
M  V30 608 2 554 561
M  V30 609 1 555 554
M  V30 610 2 556 555
M  V30 611 1 556 558
M  V30 612 1 557 555
M  V30 613 2 558 560
M  V30 614 1 559 556
M  V30 615 1 560 561
M  V30 616 1 560 562
M  V30 617 1 561 563
M  V30 618 2 565 559
M  V30 619 1 566 559
M  V30 620 1 567 577
M  V30 621 2 567 574
M  V30 622 1 568 567
M  V30 623 2 569 568
M  V30 624 1 569 571
M  V30 625 1 570 568
M  V30 626 2 571 573
M  V30 627 1 572 569
M  V30 628 1 573 574
M  V30 629 1 573 575
M  V30 630 1 574 576
M  V30 631 2 578 572
M  V30 632 1 579 572
M  V30 633 1 580 590
M  V30 634 2 580 587
M  V30 635 1 581 580
M  V30 636 2 582 581
M  V30 637 1 582 584
M  V30 638 1 583 581
M  V30 639 2 584 586
M  V30 640 1 585 582
M  V30 641 1 586 587
M  V30 642 1 586 588
M  V30 643 1 587 589
M  V30 644 2 591 585
M  V30 645 1 592 585
M  V30 646 9 565 553
M  V30 647 9 558 553
M  V30 648 9 591 553
M  V30 649 9 584 553
M  V30 650 9 578 553
M  V30 651 9 571 553
M  V30 652 1 594 604
M  V30 653 2 594 601
M  V30 654 1 595 594
M  V30 655 2 596 595
M  V30 656 1 596 598
M  V30 657 1 597 595
M  V30 658 2 598 600
M  V30 659 1 599 596
M  V30 660 1 600 601
M  V30 661 1 600 602
M  V30 662 1 601 603
M  V30 663 2 605 599
M  V30 664 1 606 599
M  V30 665 1 607 617
M  V30 666 2 607 614
M  V30 667 1 608 607
M  V30 668 2 609 608
M  V30 669 1 609 611
M  V30 670 1 610 608
M  V30 671 2 611 613
M  V30 672 1 612 609
M  V30 673 1 613 614
M  V30 674 1 613 615
M  V30 675 1 614 616
M  V30 676 2 618 612
M  V30 677 1 619 612
M  V30 678 1 620 630
M  V30 679 2 620 627
M  V30 680 1 621 620
M  V30 681 2 622 621
M  V30 682 1 622 624
M  V30 683 1 623 621
M  V30 684 2 624 626
M  V30 685 1 625 622
M  V30 686 1 626 627
M  V30 687 1 626 628
M  V30 688 1 627 629
M  V30 689 2 631 625
M  V30 690 1 632 625
M  V30 691 9 605 593
M  V30 692 9 598 593
M  V30 693 9 631 593
M  V30 694 9 624 593
M  V30 695 9 618 593
M  V30 696 9 611 593
M  V30 697 1 9 325
M  V30 698 1 20 365
M  V30 699 1 26 405
M  V30 700 1 1 445
M  V30 701 1 53 485
M  V30 702 1 61 525
M  V30 703 1 72 391
M  V30 704 1 78 338
M  V30 705 1 113 511
M  V30 706 1 124 351
M  V30 707 1 130 458
M  V30 708 1 105 605
M  V30 709 1 165 471
M  V30 710 1 176 418
M  V30 711 1 182 565
M  V30 712 1 157 631
M  V30 713 1 209 551
M  V30 714 1 217 498
M  V30 715 1 228 618
M  V30 716 1 234 578
M  V30 717 1 261 378
M  V30 718 1 269 538
M  V30 719 1 280 591
M  V30 720 1 286 431
M  V30 END BOND
M  V30 END CTAB
M  END

$$$$
