
     RDKit          3D

  0  0  0  0  0  0  0  0  0  0999 V3000
M  V30 BEGIN CTAB
M  V30 COUNTS 632 720 0 0 0
M  V30 BEGIN ATOM
M  V30 1 C -1.5726 5.8562 7.5371 0
M  V30 2 C -0.2073 6.1471 7.3898 0
M  V30 3 C 0.7257 5.1444 7.3429 0
M  V30 4 C 0.3463 3.7983 7.4884 0
M  V30 5 N 1.2763 2.7986 7.3817 0
M  V30 6 C 2.6585 3.0262 7.5630 0
M  V30 7 C 3.1384 3.8082 8.6123 0
M  V30 8 C 4.4966 3.9981 8.7728 0
M  V30 9 C 5.3916 3.3989 7.8921 0
M  V30 10 C 4.9198 2.5955 6.8583 0
M  V30 11 C 3.5609 2.4142 6.6923 0
M  V30 12 C 0.9051 1.4400 7.2302 0
M  V30 13 C 1.4729 0.5023 8.0901 0
M  V30 14 C 1.2038 -0.8368 7.9199 0
M  V30 15 C 0.3634 -1.2561 6.8894 0
M  V30 16 N 0.2061 -2.6507 6.6744 0
M  V30 17 C 1.4502 -3.3296 6.7126 0
M  V30 18 C 2.4077 -3.0030 5.7511 0
M  V30 19 C 3.6907 -3.4967 5.8615 0
M  V30 20 C 4.0371 -4.2655 6.9710 0
M  V30 21 C 3.0737 -4.6233 7.9127 0
M  V30 22 C 1.7727 -4.1862 7.7643 0
M  V30 23 C -0.9902 -3.3005 6.7769 0
M  V30 24 C -1.0882 -4.6530 6.4021 0
M  V30 25 C -2.2720 -5.3278 6.5452 0
M  V30 26 C -3.4246 -4.7022 7.0521 0
M  V30 27 C -3.3277 -3.3353 7.3855 0
M  V30 28 C -2.1478 -2.6517 7.2419 0
M  V30 29 C -0.2264 -0.3208 6.0442 0
M  V30 30 C 0.0441 1.0252 6.2149 0
M  V30 31 C -1.0171 3.5110 7.6828 0
M  V30 32 C -1.9512 4.5156 7.6913 0
M  V30 33 H 0.1051 7.1666 7.2337 0
M  V30 34 H 1.7597 5.3948 7.1715 0
M  V30 35 H 2.4534 4.2520 9.3178 0
M  V30 36 H 4.8699 4.5921 9.5919 0
M  V30 37 H 5.6269 2.1430 6.1829 0
M  V30 38 H 3.1955 1.7995 5.8852 0
M  V30 39 H 2.1158 0.8295 8.8907 0
M  V30 40 H 1.6374 -1.5578 8.5929 0
M  V30 41 H 2.1414 -2.3520 4.9338 0
M  V30 42 H 4.4519 -3.2403 5.1443 0
M  V30 43 H 3.3475 -5.2448 8.7503 0
M  V30 44 H 1.0267 -4.4563 8.4952 0
M  V30 45 H -0.2216 -5.1576 6.0075 0
M  V30 46 H -2.3387 -6.3678 6.2703 0
M  V30 47 H -4.1668 -2.8144 7.8148 0
M  V30 48 H -2.0956 -1.6187 7.5455 0
M  V30 49 H -0.8653 -0.6532 5.2423 0
M  V30 50 H -0.3885 1.7531 5.5485 0
M  V30 51 H -1.3289 2.4948 7.8590 0
M  V30 52 H -2.9894 4.2944 7.8733 0
M  V30 53 C 8.0651 2.3929 -5.9500 0
M  V30 54 C 7.9844 1.0230 -6.2375 0
M  V30 55 C 7.9726 0.0880 -5.2334 0
M  V30 56 C 8.1379 0.4745 -3.8940 0
M  V30 57 N 8.1630 -0.4445 -2.8731 0
M  V30 58 C 8.4614 -1.7994 -3.0254 0
M  V30 59 C 9.2912 -2.2685 -4.0518 0
M  V30 60 C 9.4399 -3.6197 -4.2709 0
M  V30 61 C 8.8281 -4.5430 -3.4210 0
M  V30 62 C 8.1352 -4.0819 -2.2998 0
M  V30 63 C 7.9293 -2.7308 -2.1225 0
M  V30 64 C 7.9907 -0.0279 -1.5124 0
M  V30 65 C 9.1156 0.2086 -0.7305 0
M  V30 66 C 8.9731 0.3598 0.6358 0
M  V30 67 C 7.7123 0.2206 1.2083 0
M  V30 68 N 7.6029 0.0962 2.6326 0
M  V30 69 C 7.6460 -1.1994 3.1242 0
M  V30 70 C 7.1602 -1.5314 4.3992 0
M  V30 71 C 7.1764 -2.8380 4.8366 0
M  V30 72 C 7.6762 -3.8673 4.0271 0
M  V30 73 C 8.1156 -3.5429 2.7361 0
M  V30 74 C 8.0881 -2.2435 2.2941 0
M  V30 75 C 7.7470 1.2588 3.3723 0
M  V30 76 C 8.3464 1.2862 4.6371 0
M  V30 77 C 8.5025 2.4780 5.3090 0
M  V30 78 C 8.1045 3.6854 4.7293 0
M  V30 79 C 7.5145 3.6618 3.4597 0
M  V30 80 C 7.3198 2.4691 2.8042 0
M  V30 81 C 6.5764 0.0916 0.4176 0
M  V30 82 C 6.7154 -0.0096 -0.9560 0
M  V30 83 C 8.2057 1.8469 -3.6050 0
M  V30 84 C 8.1551 2.7824 -4.6107 0
M  V30 85 H 7.8673 0.7042 -7.2601 0
M  V30 86 H 7.8178 -0.9485 -5.4850 0
M  V30 87 H 9.8304 -1.5732 -4.6746 0
M  V30 88 H 10.0649 -3.9746 -5.0737 0
M  V30 89 H 7.6840 -4.7942 -1.6284 0
M  V30 90 H 7.3254 -2.4059 -1.2915 0
M  V30 91 H 10.0938 0.2295 -1.1838 0
M  V30 92 H 9.8387 0.5104 1.2610 0
M  V30 93 H 6.7464 -0.7672 5.0361 0
M  V30 94 H 6.8222 -3.0844 5.8262 0
M  V30 95 H 8.4342 -4.3161 2.0576 0
M  V30 96 H 8.4389 -2.0390 1.2972 0
M  V30 97 H 8.7448 0.3853 5.0744 0
M  V30 98 H 9.0129 2.4945 6.2552 0
M  V30 99 H 7.1708 4.5846 3.0200 0
M  V30 100 H 6.8421 2.4716 1.8382 0
M  V30 101 H 5.6041 0.0296 0.8801 0
M  V30 102 H 5.8531 -0.1293 -1.5916 0
M  V30 103 H 8.3298 2.1718 -2.5846 0
M  V30 104 H 8.2628 3.8289 -4.3833 0
M  V30 105 C -2.1846 5.7485 -3.1963 0
M  V30 106 C -1.3043 5.0264 -4.0146 0
M  V30 107 C 0.0078 4.8277 -3.6452 0
M  V30 108 C 0.4871 5.3279 -2.4249 0
M  V30 109 N 1.7850 5.0725 -1.9979 0
M  V30 110 C 2.8844 5.1111 -2.8519 0
M  V30 111 C 2.8806 5.8942 -4.0106 0
M  V30 112 C 4.0184 6.0040 -4.7789 0
M  V30 113 C 5.1959 5.3561 -4.4001 0
M  V30 114 C 5.1930 4.5438 -3.2633 0
M  V30 115 C 4.0459 4.4067 -2.5118 0
M  V30 116 C 2.0057 5.0938 -0.5981 0
M  V30 117 C 2.9460 5.9474 -0.0234 0
M  V30 118 C 2.9629 6.1273 1.3458 0
M  V30 119 C 2.0332 5.4654 2.1463 0
M  V30 120 N 1.8490 5.8531 3.4955 0
M  V30 121 C 2.8701 6.0992 4.3681 0
M  V30 122 C 4.0523 5.3388 4.3168 0
M  V30 123 C 5.0091 5.4840 5.2884 0
M  V30 124 C 4.8711 6.4097 6.3370 0
M  V30 125 C 3.7214 7.2237 6.3336 0
M  V30 126 C 2.7395 7.0529 5.3933 0
M  V30 127 C 0.5108 6.2500 3.8010 0
M  V30 128 C -0.3620 5.2928 4.3098 0
M  V30 129 C -1.6717 5.6303 4.5848 0
M  V30 130 C -2.1221 6.9324 4.3576 0
M  V30 131 C -1.2458 7.8894 3.8433 0
M  V30 132 C 0.0631 7.5445 3.5578 0
M  V30 133 C 1.1860 4.5115 1.5829 0
M  V30 134 C 1.1821 4.3178 0.2179 0
M  V30 135 C -0.3989 6.0417 -1.6020 0
M  V30 136 C -1.7008 6.2564 -1.9805 0
M  V30 137 H -1.6714 4.6438 -4.9548 0
M  V30 138 H 0.6644 4.2624 -4.2863 0
M  V30 139 H 2.0074 6.4666 -4.2803 0
M  V30 140 H 4.0330 6.6707 -5.6237 0
M  V30 141 H 6.0876 4.0031 -3.0026 0
M  V30 142 H 4.0472 3.7695 -1.6419 0
M  V30 143 H 3.6100 6.5231 -0.6478 0
M  V30 144 H 3.6427 6.8384 1.7879 0
M  V30 145 H 4.1774 4.6061 3.5361 0
M  V30 146 H 5.8779 4.8468 5.2909 0
M  V30 147 H 3.5948 8.0093 7.0607 0
M  V30 148 H 1.8649 7.6820 5.4298 0
M  V30 149 H -0.0070 4.2938 4.5022 0
M  V30 150 H -2.3685 4.8939 4.9503 0
M  V30 151 H -1.5732 8.9087 3.7079 0
M  V30 152 H 0.7372 8.2860 3.1572 0
M  V30 153 H 0.5135 3.9485 2.2064 0
M  V30 154 H 0.5175 3.5989 -0.2318 0
M  V30 155 H -0.0582 6.4485 -0.6645 0
M  V30 156 H -2.3589 6.7792 -1.3070 0
M  V30 157 C -5.1408 2.7393 -2.3472 0
M  V30 158 C -3.9654 3.0924 -1.6777 0
M  V30 159 C -3.7784 2.7507 -0.3515 0
M  V30 160 C -4.7661 2.0356 0.3262 0
M  V30 161 N -4.5618 1.5298 1.6339 0
M  V30 162 C -4.5412 2.3502 2.7392 0
M  V30 163 C -4.8783 3.7080 2.6374 0
M  V30 164 C -4.9631 4.4901 3.7637 0
M  V30 165 C -4.7348 3.9460 5.0340 0
M  V30 166 C -4.3094 2.6112 5.1272 0
M  V30 167 C -4.1882 1.8368 3.9983 0
M  V30 168 C -4.8798 0.1544 1.7189 0
M  V30 169 C -5.8223 -0.3398 2.6192 0
M  V30 170 C -6.2627 -1.6429 2.5026 0
M  V30 171 C -5.7765 -2.4549 1.4802 0
M  V30 172 N -6.3629 -3.7314 1.2802 0
M  V30 173 C -6.4197 -4.5750 2.3898 0
M  V30 174 C -5.2648 -4.7553 3.1609 0
M  V30 175 C -5.2573 -5.6719 4.1856 0
M  V30 176 C -6.4091 -6.4030 4.5066 0
M  V30 177 C -7.5970 -6.1229 3.8117 0
M  V30 178 C -7.5950 -5.2413 2.7564 0
M  V30 179 C -6.8591 -4.0866 0.0420 0
M  V30 180 C -7.1418 -5.4265 -0.2664 0
M  V30 181 C -7.4796 -5.7971 -1.5451 0
M  V30 182 C -7.5560 -4.8538 -2.5748 0
M  V30 183 C -7.3596 -3.5043 -2.2515 0
M  V30 184 C -7.0138 -3.1302 -0.9744 0
M  V30 185 C -4.7559 -1.9965 0.6482 0
M  V30 186 C -4.3093 -0.6976 0.7694 0
M  V30 187 C -5.9699 1.7404 -0.3193 0
M  V30 188 C -6.1636 2.0988 -1.6316 0
M  V30 189 H -3.1873 3.6011 -2.2230 0
M  V30 190 H -2.8627 3.0065 0.1569 0
M  V30 191 H -5.1315 4.1319 1.6796 0
M  V30 192 H -5.2962 5.5097 3.6886 0
M  V30 193 H -4.0378 2.2088 6.0899 0
M  V30 194 H -3.8402 0.8199 4.0815 0
M  V30 195 H -6.2614 0.3068 3.3617 0
M  V30 196 H -7.0326 -2.0147 3.1596 0
M  V30 197 H -4.3675 -4.2103 2.9147 0
M  V30 198 H -4.3439 -5.8868 4.7178 0
M  V30 199 H -8.5290 -6.5804 4.1052 0
M  V30 200 H -8.5124 -5.0507 2.2199 0
M  V30 201 H -7.0737 -6.1861 0.4942 0
M  V30 202 H -7.7158 -6.8235 -1.7623 0
M  V30 203 H -7.4225 -2.7560 -3.0248 0
M  V30 204 H -6.8583 -2.0859 -0.7616 0
M  V30 205 H -4.3435 -2.6523 -0.1009 0
M  V30 206 H -3.5366 -0.3271 0.1158 0
M  V30 207 H -6.7607 1.2478 0.2242 0
M  V30 208 H -7.1265 1.9354 -2.0883 0
M  V30 209 C 6.4908 -3.9515 -6.4828 0
M  V30 210 C 6.0795 -3.4631 -5.2423 0
M  V30 211 C 5.1073 -2.4834 -5.1736 0
M  V30 212 C 4.4944 -2.0264 -6.3370 0
M  V30 213 N 3.5355 -0.9788 -6.2451 0
M  V30 214 C 3.8794 0.3136 -6.5973 0
M  V30 215 C 4.9780 0.5945 -7.4182 0
M  V30 216 C 5.3228 1.8936 -7.7098 0
M  V30 217 C 4.5828 2.9626 -7.2000 0
M  V30 218 C 3.4827 2.6876 -6.3765 0
M  V30 219 C 3.1515 1.3920 -6.0639 0
M  V30 220 C 2.1823 -1.3205 -6.0526 0
M  V30 221 C 1.2217 -0.7418 -6.8827 0
M  V30 222 C -0.1138 -0.9924 -6.6732 0
M  V30 223 C -0.5154 -1.8295 -5.6318 0
M  V30 224 N -1.9050 -1.9433 -5.3610 0
M  V30 225 C -2.5392 -0.6770 -5.4064 0
M  V30 226 C -2.1096 0.3025 -4.5079 0
M  V30 227 C -2.5072 1.6125 -4.6711 0
M  V30 228 C -3.2844 1.9616 -5.7753 0
M  V30 229 C -3.7742 0.9744 -6.6305 0
M  V30 230 C -3.4330 -0.3477 -6.4252 0
M  V30 231 C -2.5807 -3.1279 -5.3743 0
M  V30 232 C -3.9177 -3.1890 -4.9401 0
M  V30 233 C -4.5986 -4.3783 -4.9574 0
M  V30 234 C -3.9952 -5.5733 -5.3888 0
M  V30 235 C -2.6519 -5.5039 -5.8130 0
M  V30 236 C -1.9637 -4.3193 -5.7976 0
M  V30 237 C 0.4413 -2.4571 -4.8398 0
M  V30 238 C 1.7857 -2.2104 -5.0556 0
M  V30 239 C 4.8267 -2.5938 -7.5649 0
M  V30 240 C 5.8369 -3.5343 -7.6429 0
M  V30 241 H 6.5651 -3.8231 -4.3510 0
M  V30 242 H 4.8369 -2.0576 -4.2210 0
M  V30 243 H 5.5477 -0.2096 -7.8536 0
M  V30 244 H 6.1248 2.1026 -8.3988 0
M  V30 245 H 2.9481 3.5127 -5.9347 0
M  V30 246 H 2.3321 1.1960 -5.3914 0
M  V30 247 H 1.5285 -0.1005 -7.6932 0
M  V30 248 H -0.8479 -0.5482 -7.3249 0
M  V30 249 H -1.4440 0.0312 -3.7039 0
M  V30 250 H -2.1641 2.3881 -4.0070 0
M  V30 251 H -4.4175 1.2469 -7.4523 0
M  V30 252 H -3.7967 -1.1084 -7.0983 0
M  V30 253 H -4.4061 -2.2914 -4.5972 0
M  V30 254 H -5.6278 -4.4176 -4.6384 0
M  V30 255 H -2.1517 -6.3743 -6.2023 0
M  V30 256 H -0.9504 -4.2939 -6.1647 0
M  V30 257 H 0.1244 -3.1072 -4.0408 0
M  V30 258 H 2.5248 -2.6854 -4.4327 0
M  V30 259 H 4.3127 -2.2881 -8.4633 0
M  V30 260 H 6.0994 -3.9688 -8.5954 0
M  V30 261 C 4.3149 -6.3513 3.5770 0
M  V30 262 C 4.7017 -5.2250 2.8469 0
M  V30 263 C 4.2955 -5.0622 1.5353 0
M  V30 264 C 3.4869 -6.0279 0.9361 0
M  V30 265 N 2.9170 -5.8288 -0.3476 0
M  V30 266 C 3.6741 -5.8893 -1.4934 0
M  V30 267 C 4.9826 -6.3962 -1.4734 0
M  V30 268 C 5.6696 -6.5810 -2.6487 0
M  V30 269 C 5.0906 -6.2619 -3.8847 0
M  V30 270 C 3.8296 -5.6379 -3.8901 0
M  V30 271 C 3.1395 -5.4518 -2.7181 0
M  V30 272 C 1.5270 -6.0914 -0.3486 0
M  V30 273 C 0.9516 -7.0396 -1.1940 0
M  V30 274 C -0.3329 -7.4832 -0.9503 0
M  V30 275 C -1.0472 -6.9888 0.1403 0
M  V30 276 N -2.2622 -7.6154 0.5140 0
M  V30 277 C -3.2056 -7.8444 -0.4870 0
M  V30 278 C -3.5478 -6.8011 -1.3563 0
M  V30 279 C -4.5674 -6.9679 -2.2639 0
M  V30 280 C -5.2475 -8.1891 -2.3688 0
M  V30 281 C -4.8099 -9.2694 -1.5848 0
M  V30 282 C -3.8223 -9.0920 -0.6453 0
M  V30 283 C -2.4601 -8.0204 1.8222 0
M  V30 284 C -3.7480 -8.3090 2.3004 0
M  V30 285 C -3.9663 -8.5450 3.6363 0
M  V30 286 C -2.9158 -8.5071 4.5585 0
M  V30 287 C -1.6158 -8.3162 4.0696 0
M  V30 288 C -1.3940 -8.0749 2.7341 0
M  V30 289 C -0.5293 -5.9305 0.8884 0
M  V30 290 C 0.7529 -5.4859 0.6454 0
M  V30 291 C 3.1615 -7.1909 1.6390 0
M  V30 292 C 3.5782 -7.3587 2.9378 0
M  V30 293 H 5.2830 -4.4599 3.3342 0
M  V30 294 H 4.5673 -4.1752 0.9854 0
M  V30 295 H 5.4235 -6.7109 -0.5412 0
M  V30 296 H 6.6309 -7.0668 -2.6440 0
M  V30 297 H 3.4171 -5.2769 -4.8181 0
M  V30 298 H 2.1701 -4.9798 -2.7306 0
M  V30 299 H 1.5289 -7.4894 -1.9855 0
M  V30 300 H -0.7568 -8.2692 -1.5545 0
M  V30 301 H -3.0450 -5.8506 -1.2758 0
M  V30 302 H -4.9034 -6.1387 -2.8665 0
M  V30 303 H -5.2293 -10.2541 -1.7206 0
M  V30 304 H -3.5113 -9.9271 -0.0361 0
M  V30 305 H -4.5880 -8.3217 1.6262 0
M  V30 306 H -4.9556 -8.7828 3.9846 0
M  V30 307 H -0.7848 -8.2975 4.7554 0
M  V30 308 H -0.3837 -7.9211 2.3938 0
M  V30 309 H -1.1212 -5.4953 1.6768 0
M  V30 310 H 1.1744 -4.6944 1.2433 0
M  V30 311 H 2.5943 -7.9686 1.1525 0
M  V30 312 H 3.3825 -8.2904 3.4440 0
M  V30 313 Zn 7.7536 5.4612 7.4223 0 CHG=2
M  V30 314 C 11.1930 2.5828 9.3803 0
M  V30 315 C 9.8462 2.2449 9.3401 0
M  V30 316 C 8.9632 3.1007 8.6899 0
M  V30 317 H 9.4931 1.3394 9.8074 0
M  V30 318 N 9.3740 4.2335 8.0958 0
M  V30 319 C 7.5393 2.8237 8.5888 0
M  V30 320 C 10.6570 4.5464 8.1265 0
M  V30 321 C 11.6074 3.7507 8.7588 0
M  V30 322 H 10.9427 5.4608 7.6296 0
M  V30 323 H 12.6444 4.0452 8.7625 0
M  V30 324 H 11.9070 1.9482 9.8817 0
M  V30 325 N 6.7729 3.6599 8.0142 0
M  V30 326 H 7.1713 1.8911 9.0115 0
M  V30 327 C 7.2774 7.7293 11.7028 0
M  V30 328 C 6.3721 7.8046 10.6627 0
M  V30 329 C 6.5943 7.0482 9.5056 0
M  V30 330 H 5.5069 8.4447 10.7360 0
M  V30 331 N 7.6630 6.2421 9.3829 0
M  V30 332 C 5.6609 7.0872 8.4182 0
M  V30 333 C 8.5218 6.1731 10.3896 0
M  V30 334 C 8.3774 6.8901 11.5659 0
M  V30 335 H 9.3710 5.5210 10.2621 0
M  V30 336 H 9.1073 6.7995 12.3538 0
M  V30 337 H 7.1367 8.3068 12.6036 0
M  V30 338 N 5.8373 6.4226 7.3224 0
M  V30 339 H 4.7762 7.6866 8.6005 0
M  V30 340 C 9.9470 9.3634 5.4515 0
M  V30 341 C 9.6629 8.2023 4.7523 0
M  V30 342 C 9.0602 7.1397 5.4261 0
M  V30 343 H 9.9105 8.1190 3.7060 0
M  V30 344 N 8.7367 7.2108 6.7280 0
M  V30 345 C 8.7962 5.8837 4.7678 0
M  V30 346 C 9.0157 8.3211 7.3899 0
M  V30 347 C 9.6215 9.4225 6.7994 0
M  V30 348 H 8.7560 8.3492 8.4368 0
M  V30 349 H 9.8321 10.3027 7.3853 0
M  V30 350 H 10.4159 10.2050 4.9656 0
M  V30 351 N 8.3175 4.8842 5.4158 0
M  V30 352 H 9.0716 5.8081 3.7185 0
M  V30 353 Zn -4.8371 -7.6126 7.0429 0 CHG=2
M  V30 354 C -8.9619 -6.0195 8.9937 0
M  V30 355 C -8.0082 -5.2134 8.4025 0
M  V30 356 C -6.7647 -5.7622 8.0758 0
M  V30 357 H -8.2174 -4.1750 8.2004 0
M  V30 358 N -6.4851 -7.0605 8.2897 0
M  V30 359 C -5.6843 -4.9546 7.5873 0
M  V30 360 C -7.3876 -7.8120 8.8987 0
M  V30 361 C -8.6366 -7.3418 9.2732 0
M  V30 362 H -7.1085 -8.8328 9.1129 0
M  V30 363 H -9.3350 -7.9949 9.7715 0
M  V30 364 H -9.9351 -5.6328 9.2549 0
M  V30 365 N -4.5464 -5.4790 7.2605 0
M  V30 366 H -5.8599 -3.8847 7.5794 0
M  V30 367 C -1.8973 -9.3943 10.4331 0
M  V30 368 C -1.6886 -9.5944 9.0780 0
M  V30 369 C -2.5282 -8.9530 8.1656 0
M  V30 370 H -0.9021 -10.2469 8.7325 0
M  V30 371 N -3.5207 -8.1396 8.5682 0
M  V30 372 C -2.3650 -9.1028 6.7383 0
M  V30 373 C -3.7080 -7.9419 9.8626 0
M  V30 374 C -2.9222 -8.5476 10.8345 0
M  V30 375 H -4.5114 -7.2750 10.1353 0
M  V30 376 H -3.1120 -8.3632 11.8795 0
M  V30 377 H -1.2763 -9.8854 11.1662 0
M  V30 378 N -3.1849 -8.5395 5.9224 0
M  V30 379 H -1.5235 -9.6972 6.3923 0
M  V30 380 C -7.5567 -11.6549 7.2224 0
M  V30 381 C -7.8348 -10.5568 6.4283 0
M  V30 382 C -6.9030 -9.5184 6.3574 0
M  V30 383 H -8.7605 -10.4991 5.8770 0
M  V30 384 N -5.7448 -9.5555 7.0338 0
M  V30 385 C -7.1228 -8.3811 5.5056 0
M  V30 386 C -5.4782 -10.6189 7.7731 0
M  V30 387 C -6.3464 -11.6932 7.9025 0
M  V30 388 H -4.5314 -10.6253 8.2897 0
M  V30 389 H -6.0866 -12.5363 8.5220 0
M  V30 390 H -8.2620 -12.4674 7.3074 0
M  V30 391 N -6.2754 -7.4135 5.4473 0
M  V30 392 H -8.0026 -8.4298 4.8716 0
M  V30 393 Zn -4.4569 6.7833 6.5331 0 CHG=2
M  V30 394 C -3.8757 11.3583 8.2723 0
M  V30 395 C -2.9378 10.3488 8.3737 0
M  V30 396 C -3.2090 9.1051 7.7940 0
M  V30 397 H -2.0116 10.5122 8.9017 0
M  V30 398 N -4.3504 8.8633 7.1272 0
M  V30 399 C -2.2767 8.0212 7.9116 0
M  V30 400 C -5.2467 9.8358 7.0470 0
M  V30 401 C -5.0609 11.0944 7.5962 0
M  V30 402 H -6.1668 9.6123 6.5311 0
M  V30 403 H -5.8250 11.8487 7.5010 0
M  V30 404 H -3.6984 12.3275 8.7125 0
M  V30 405 N -2.5451 6.8370 7.4771 0
M  V30 406 H -1.3437 8.2457 8.4197 0
M  V30 407 C -6.7786 5.2519 10.5375 0
M  V30 408 C -6.4838 4.4375 9.4580 0
M  V30 409 C -5.8227 4.9876 8.3582 0
M  V30 410 H -6.7656 3.3966 9.4649 0
M  V30 411 N -5.4589 6.2817 8.3197 0
M  V30 412 C -5.5274 4.2058 7.1847 0
M  V30 413 C -5.7459 7.0533 9.3544 0
M  V30 414 C -6.4043 6.5881 10.4846 0
M  V30 415 H -5.4460 8.0878 9.2934 0
M  V30 416 H -6.6174 7.2586 11.3014 0
M  V30 417 H -7.2904 4.8634 11.4044 0
M  V30 418 N -4.9653 4.7382 6.1540 0
M  V30 419 H -5.8427 3.1656 7.1921 0
M  V30 420 C -7.7761 8.9339 3.7191 0
M  V30 421 C -6.4241 8.8836 3.4082 0
M  V30 422 C -5.5799 8.1244 4.2137 0
M  V30 423 H -6.0346 9.4272 2.5622 0
M  V30 424 N -6.0370 7.4363 5.2740 0
M  V30 425 C -4.1679 7.9646 3.9265 0
M  V30 426 C -7.3274 7.4737 5.5572 0
M  V30 427 C -8.2389 8.2100 4.8078 0
M  V30 428 H -7.6500 6.8954 6.4094 0
M  V30 429 H -9.2830 8.2162 5.0764 0
M  V30 430 H -8.4575 9.5215 3.1236 0
M  V30 431 N -3.4571 7.2043 4.6684 0
M  V30 432 H -3.7779 8.4450 3.0325 0
M  V30 433 Zn 6.8471 5.1484 -7.1893 0 CHG=2
M  V30 434 C 9.0885 4.5289 -11.4694 0
M  V30 435 C 9.2732 3.7116 -10.3684 0
M  V30 436 C 8.5020 3.9321 -9.2242 0
M  V30 437 H 10.0068 2.9210 -10.3895 0
M  V30 438 N 7.5859 4.9119 -9.1622 0
M  V30 439 C 8.6388 3.0957 -8.0604 0
M  V30 440 C 7.4057 5.6790 -10.2251 0
M  V30 441 C 8.1281 5.5301 -11.4002 0
M  V30 442 H 6.6540 6.4490 -10.1483 0
M  V30 443 H 7.9456 6.1816 -12.2393 0
M  V30 444 H 9.6739 4.3907 -12.3654 0
M  V30 445 N 8.0116 3.3409 -6.9635 0
M  V30 446 H 9.2992 2.2374 -8.1597 0
M  V30 447 C 10.7576 7.4316 -5.3318 0
M  V30 448 C 9.6619 7.0401 -4.5791 0
M  V30 449 C 8.5840 6.4368 -5.2253 0
M  V30 450 H 9.6422 7.2065 -3.5137 0
M  V30 451 N 8.5801 6.2096 -6.5487 0
M  V30 452 C 7.3791 6.0705 -4.5136 0
M  V30 453 C 9.6242 6.5943 -7.2617 0
M  V30 454 C 10.7358 7.2117 -6.7015 0
M  V30 455 H 9.5850 6.4132 -8.3252 0
M  V30 456 H 11.5611 7.5098 -7.3279 0
M  V30 457 H 11.6106 7.9035 -4.8693 0
M  V30 458 N 6.3618 5.6034 -5.1373 0
M  V30 459 H 7.3525 6.2678 -3.4430 0
M  V30 460 C 4.0025 8.7341 -8.8278 0
M  V30 461 C 3.5640 7.4399 -8.6042 0
M  V30 462 C 4.4602 6.5056 -8.0823 0
M  V30 463 H 2.5508 7.1542 -8.8377 0
M  V30 464 N 5.7297 6.8328 -7.7819 0
M  V30 465 C 4.0815 5.1367 -7.8226 0
M  V30 466 C 6.1398 8.0737 -7.9891 0
M  V30 467 C 5.3150 9.0609 -8.5102 0
M  V30 468 H 7.1640 8.2933 -7.7285 0
M  V30 469 H 5.6928 10.0588 -8.6634 0
M  V30 470 H 3.3406 9.4811 -9.2377 0
M  V30 471 N 4.9696 4.2623 -7.5041 0
M  V30 472 H 3.0329 4.8739 -7.9342 0
M  V30 473 Zn 7.8430 -6.6966 -5.4578 0 CHG=2
M  V30 474 C 9.4377 -10.5264 -2.9186 0
M  V30 475 C 9.6015 -9.2137 -2.5005 0
M  V30 476 C 9.0598 -8.1916 -3.2764 0
M  V30 477 H 10.1497 -8.9877 -1.5998 0
M  V30 478 N 8.3689 -8.4413 -4.4038 0
M  V30 479 C 9.2010 -6.7924 -2.9254 0
M  V30 480 C 8.2071 -9.6947 -4.7926 0
M  V30 481 C 8.7273 -10.7723 -4.0847 0
M  V30 482 H 7.6394 -9.8516 -5.6971 0
M  V30 483 H 8.5756 -11.7785 -4.4405 0
M  V30 484 H 9.8526 -11.3432 -2.3487 0
M  V30 485 N 8.8105 -5.8973 -3.7522 0
M  V30 486 H 9.6516 -6.5424 -1.9683 0
M  V30 487 C 11.7463 -6.2258 -8.3356 0
M  V30 488 C 10.6408 -5.3895 -8.3887 0
M  V30 489 C 9.6277 -5.5564 -7.4474 0
M  V30 490 H 10.5680 -4.6263 -9.1475 0
M  V30 491 N 9.6881 -6.4973 -6.4937 0
M  V30 492 C 8.4644 -4.6982 -7.4191 0
M  V30 493 C 10.7504 -7.2812 -6.4388 0
M  V30 494 C 11.8071 -7.1855 -7.3362 0
M  V30 495 H 10.7678 -8.0185 -5.6512 0
M  V30 496 H 12.6531 -7.8490 -7.2564 0
M  V30 497 H 12.5456 -6.1290 -9.0540 0
M  V30 498 N 7.5756 -4.8378 -6.5120 0
M  V30 499 H 8.4127 -3.9118 -8.1680 0
M  V30 500 C 5.7181 -8.3231 -9.4990 0
M  V30 501 C 5.0422 -7.7649 -8.4295 0
M  V30 502 C 5.7577 -7.4256 -7.2786 0
M  V30 503 H 3.9784 -7.5972 -8.4811 0
M  V30 504 N 7.0872 -7.6104 -7.1899 0
M  V30 505 C 5.1043 -6.9238 -6.1018 0
M  V30 506 C 7.7211 -8.1726 -8.2073 0
M  V30 507 C 7.0847 -8.5451 -9.3815 0
M  V30 508 H 8.7803 -8.3432 -8.0883 0
M  V30 509 H 7.6474 -9.0001 -10.1807 0
M  V30 510 H 5.1999 -8.5946 -10.4057 0
M  V30 511 N 5.7717 -6.6321 -5.0344 0
M  V30 512 H 4.0206 -6.8765 -6.1319 0
M  V30 513 Zn -6.8484 -7.0159 -4.9104 0 CHG=2
M  V30 514 C -9.2025 -4.6008 -8.3685 0
M  V30 515 C -9.2305 -4.2236 -7.0359 0
M  V30 516 C -8.4282 -4.9119 -6.1242 0
M  V30 517 H -9.8718 -3.4220 -6.7044 0
M  V30 518 N -7.6243 -5.9188 -6.5076 0
M  V30 519 C -8.4046 -4.5737 -4.7204 0
M  V30 520 C -7.5902 -6.2652 -7.7835 0
M  V30 521 C -8.3616 -5.6372 -8.7525 0
M  V30 522 H -6.9229 -7.0720 -8.0451 0
M  V30 523 H -8.3074 -5.9545 -9.7813 0
M  V30 524 H -9.8204 -4.0991 -9.0972 0
M  V30 525 N -7.7200 -5.2760 -3.8887 0
M  V30 526 H -8.9847 -3.7095 -4.4070 0
M  V30 527 C -10.7177 -9.8940 -4.2181 0
M  V30 528 C -9.5103 -10.0306 -3.5570 0
M  V30 529 C -8.5268 -9.0545 -3.7344 0
M  V30 530 H -9.3279 -10.8808 -2.9183 0
M  V30 531 N -8.7202 -7.9867 -4.5239 0
M  V30 532 C -7.2784 -9.1179 -3.0237 0
M  V30 533 C -9.8845 -7.8544 -5.1362 0
M  V30 534 C -10.9145 -8.7764 -5.0190 0
M  V30 535 H -10.0122 -6.9763 -5.7500 0
M  V30 536 H -11.8452 -8.6272 -5.5420 0
M  V30 537 H -11.4934 -10.6367 -4.1106 0
M  V30 538 N -6.3655 -8.2242 -3.1889 0
M  V30 539 H -7.1935 -9.9141 -2.2904 0
M  V30 540 C -5.3893 -11.2678 -6.7315 0
M  V30 541 C -4.5462 -10.2491 -6.3321 0
M  V30 542 C -5.0927 -9.0028 -6.0096 0
M  V30 543 H -3.4813 -10.4094 -6.2764 0
M  V30 544 N -6.4184 -8.7804 -6.0453 0
M  V30 545 C -4.2631 -7.8694 -5.7198 0
M  V30 546 C -7.2130 -9.7495 -6.4698 0
M  V30 547 C -6.7515 -11.0068 -6.8260 0
M  V30 548 H -8.2655 -9.5203 -6.5448 0
M  V30 549 H -7.4415 -11.7603 -7.1705 0
M  V30 550 H -5.0042 -12.2436 -6.9851 0
M  V30 551 N -4.7701 -6.7144 -5.4257 0
M  V30 552 H -3.1969 -8.0285 -5.8354 0
M  V30 553 Zn 6.4353 -6.0626 5.9403 0 CHG=2
M  V30 554 C 9.3444 -4.9988 9.6917 0
M  V30 555 C 8.0319 -4.5622 9.5913 0
M  V30 556 C 7.3137 -4.8606 8.4363 0
M  V30 557 H 7.5743 -4.0053 10.3936 0
M  V30 558 N 7.8499 -5.5517 7.4163 0
M  V30 559 C 5.9438 -4.4529 8.2519 0
M  V30 560 C 9.1059 -5.9524 7.5135 0
M  V30 561 C 9.8935 -5.7038 8.6307 0
M  V30 562 H 9.5075 -6.4987 6.6745 0
M  V30 563 H 10.9103 -6.0600 8.6700 0
M  V30 564 H 9.9281 -4.7960 10.5764 0
M  V30 565 N 5.3741 -4.6555 7.1232 0
M  V30 566 H 5.4320 -3.9647 9.0740 0
M  V30 567 C 3.7065 -8.4848 9.1456 0
M  V30 568 C 3.2589 -8.0612 7.9055 0
M  V30 569 C 4.1638 -7.4576 7.0358 0
M  V30 570 H 2.2296 -8.1953 7.6147 0
M  V30 571 N 5.4480 -7.2490 7.3731 0
M  V30 572 C 3.8116 -7.0697 5.6968 0
M  V30 573 C 5.8753 -7.6851 8.5477 0
M  V30 574 C 5.0449 -8.3072 9.4666 0
M  V30 575 H 6.9212 -7.5428 8.7593 0
M  V30 576 H 5.4441 -8.6477 10.4084 0
M  V30 577 H 3.0379 -8.9554 9.8493 0
M  V30 578 N 4.6628 -6.4913 4.9226 0
M  V30 579 H 2.8092 -7.3129 5.3572 0
M  V30 580 C 9.1740 -9.6959 4.3676 0
M  V30 581 C 9.3178 -8.3782 3.9660 0
M  V30 582 C 8.4046 -7.4291 4.4276 0
M  V30 583 H 10.1276 -8.0885 3.3151 0
M  V30 584 N 7.3930 -7.7579 5.2498 0
M  V30 585 C 8.4870 -6.0424 4.0426 0
M  V30 586 C 7.2523 -9.0211 5.6155 0
M  V30 587 C 8.1152 -10.0264 5.2024 0
M  V30 588 H 6.4213 -9.2458 6.2645 0
M  V30 589 H 7.9653 -11.0428 5.5293 0
M  V30 590 H 9.8687 -10.4532 4.0383 0
M  V30 591 N 7.6435 -5.1772 4.4910 0
M  V30 592 H 9.2954 -5.7698 3.3718 0
M  V30 593 Zn -4.6874 4.6811 -4.8504 0 CHG=2
M  V30 594 C -7.7415 8.0828 -3.3329 0
M  V30 595 C -6.3891 8.0625 -3.0369 0
M  V30 596 C -5.6230 6.9726 -3.4554 0
M  V30 597 H -5.9332 8.8784 -2.4984 0
M  V30 598 N -6.1610 5.9485 -4.1405 0
M  V30 599 C -4.2147 6.8784 -3.1678 0
M  V30 600 C -7.4569 5.9668 -4.4047 0
M  V30 601 C -8.2896 7.0088 -4.0220 0
M  V30 602 H -7.8526 5.1203 -4.9432 0
M  V30 603 H -9.3404 6.9836 -4.2619 0
M  V30 604 H -8.3612 8.9139 -3.0330 0
M  V30 605 N -3.5145 5.8761 -3.5789 0
M  V30 606 H -3.7791 7.6947 -2.6005 0
M  V30 607 C -3.4806 7.0766 -8.9214 0
M  V30 608 C -3.2295 5.7276 -8.7220 0
M  V30 609 C -3.5433 5.1628 -7.4879 0
M  V30 610 H -2.8029 5.1253 -9.5085 0
M  V30 611 N -4.0738 5.8816 -6.4845 0
M  V30 612 C -3.3177 3.7683 -7.2023 0
M  V30 613 C -4.2995 7.1697 -6.6785 0
M  V30 614 C -4.0236 7.8130 -7.8786 0
M  V30 615 H -4.7212 7.7185 -5.8511 0
M  V30 616 H -4.2348 8.8640 -7.9933 0
M  V30 617 H -3.2605 7.5455 -9.8680 0
M  V30 618 N -3.5197 3.3207 -6.0191 0
M  V30 619 H -2.9542 3.1319 -8.0024 0
M  V30 620 C -7.6430 2.1458 -7.7644 0
M  V30 621 C -7.1954 1.7062 -6.5300 0
M  V30 622 C -6.4387 2.5716 -5.7423 0
M  V30 623 H -7.4309 0.7142 -6.1799 0
M  V30 624 N -6.1052 3.8052 -6.1571 0
M  V30 625 C -6.0176 2.2303 -4.4099 0
M  V30 626 C -6.5625 4.2289 -7.3244 0
M  V30 627 C -7.3339 3.4390 -8.1629 0
M  V30 628 H -6.3145 5.2407 -7.5984 0
M  V30 629 H -7.6868 3.8335 -9.1021 0
M  V30 630 H -8.2320 1.5065 -8.4034 0
M  V30 631 N -5.3111 3.0394 -3.6984 0
M  V30 632 H -6.3533 1.2736 -4.0202 0
M  V30 END ATOM
M  V30 BEGIN BOND
M  V30 1 2 1 2
M  V30 2 1 2 3
M  V30 3 2 3 4
M  V30 4 1 4 5
M  V30 5 1 5 6
M  V30 6 2 6 7
M  V30 7 1 7 8
M  V30 8 2 8 9
M  V30 9 1 9 10
M  V30 10 2 10 11
M  V30 11 1 5 12
M  V30 12 2 12 13
M  V30 13 1 13 14
M  V30 14 2 14 15
M  V30 15 1 15 16
M  V30 16 1 16 17
M  V30 17 2 17 18
M  V30 18 1 18 19
M  V30 19 2 19 20
M  V30 20 1 20 21
M  V30 21 2 21 22
M  V30 22 1 16 23
M  V30 23 2 23 24
M  V30 24 1 24 25
M  V30 25 2 25 26
M  V30 26 1 26 27
M  V30 27 2 27 28
M  V30 28 1 15 29
M  V30 29 2 29 30
M  V30 30 1 4 31
M  V30 31 2 31 32
M  V30 32 1 32 1
M  V30 33 1 11 6
M  V30 34 1 30 12
M  V30 35 1 22 17
M  V30 36 1 28 23
M  V30 37 1 2 33
M  V30 38 1 3 34
M  V30 39 1 7 35
M  V30 40 1 8 36
M  V30 41 1 10 37
M  V30 42 1 11 38
M  V30 43 1 13 39
M  V30 44 1 14 40
M  V30 45 1 18 41
M  V30 46 1 19 42
M  V30 47 1 21 43
M  V30 48 1 22 44
M  V30 49 1 24 45
M  V30 50 1 25 46
M  V30 51 1 27 47
M  V30 52 1 28 48
M  V30 53 1 29 49
M  V30 54 1 30 50
M  V30 55 1 31 51
M  V30 56 1 32 52
M  V30 57 2 53 54
M  V30 58 1 54 55
M  V30 59 2 55 56
M  V30 60 1 56 57
M  V30 61 1 57 58
M  V30 62 2 58 59
M  V30 63 1 59 60
M  V30 64 2 60 61
M  V30 65 1 61 62
M  V30 66 2 62 63
M  V30 67 1 57 64
M  V30 68 2 64 65
M  V30 69 1 65 66
M  V30 70 2 66 67
M  V30 71 1 67 68
M  V30 72 1 68 69
M  V30 73 2 69 70
M  V30 74 1 70 71
M  V30 75 2 71 72
M  V30 76 1 72 73
M  V30 77 2 73 74
M  V30 78 1 68 75
M  V30 79 2 75 76
M  V30 80 1 76 77
M  V30 81 2 77 78
M  V30 82 1 78 79
M  V30 83 2 79 80
M  V30 84 1 67 81
M  V30 85 2 81 82
M  V30 86 1 56 83
M  V30 87 2 83 84
M  V30 88 1 84 53
M  V30 89 1 63 58
M  V30 90 1 82 64
M  V30 91 1 74 69
M  V30 92 1 80 75
M  V30 93 1 54 85
M  V30 94 1 55 86
M  V30 95 1 59 87
M  V30 96 1 60 88
M  V30 97 1 62 89
M  V30 98 1 63 90
M  V30 99 1 65 91
M  V30 100 1 66 92
M  V30 101 1 70 93
M  V30 102 1 71 94
M  V30 103 1 73 95
M  V30 104 1 74 96
M  V30 105 1 76 97
M  V30 106 1 77 98
M  V30 107 1 79 99
M  V30 108 1 80 100
M  V30 109 1 81 101
M  V30 110 1 82 102
M  V30 111 1 83 103
M  V30 112 1 84 104
M  V30 113 2 105 106
M  V30 114 1 106 107
M  V30 115 2 107 108
M  V30 116 1 108 109
M  V30 117 1 109 110
M  V30 118 2 110 111
M  V30 119 1 111 112
M  V30 120 2 112 113
M  V30 121 1 113 114
M  V30 122 2 114 115
M  V30 123 1 109 116
M  V30 124 2 116 117
M  V30 125 1 117 118
M  V30 126 2 118 119
M  V30 127 1 119 120
M  V30 128 1 120 121
M  V30 129 2 121 122
M  V30 130 1 122 123
M  V30 131 2 123 124
M  V30 132 1 124 125
M  V30 133 2 125 126
M  V30 134 1 120 127
M  V30 135 2 127 128
M  V30 136 1 128 129
M  V30 137 2 129 130
M  V30 138 1 130 131
M  V30 139 2 131 132
M  V30 140 1 119 133
M  V30 141 2 133 134
M  V30 142 1 108 135
M  V30 143 2 135 136
M  V30 144 1 136 105
M  V30 145 1 115 110
M  V30 146 1 134 116
M  V30 147 1 126 121
M  V30 148 1 132 127
M  V30 149 1 106 137
M  V30 150 1 107 138
M  V30 151 1 111 139
M  V30 152 1 112 140
M  V30 153 1 114 141
M  V30 154 1 115 142
M  V30 155 1 117 143
M  V30 156 1 118 144
M  V30 157 1 122 145
M  V30 158 1 123 146
M  V30 159 1 125 147
M  V30 160 1 126 148
M  V30 161 1 128 149
M  V30 162 1 129 150
M  V30 163 1 131 151
M  V30 164 1 132 152
M  V30 165 1 133 153
M  V30 166 1 134 154
M  V30 167 1 135 155
M  V30 168 1 136 156
M  V30 169 2 157 158
M  V30 170 1 158 159
M  V30 171 2 159 160
M  V30 172 1 160 161
M  V30 173 1 161 162
M  V30 174 2 162 163
M  V30 175 1 163 164
M  V30 176 2 164 165
M  V30 177 1 165 166
M  V30 178 2 166 167
M  V30 179 1 161 168
M  V30 180 2 168 169
M  V30 181 1 169 170
M  V30 182 2 170 171
M  V30 183 1 171 172
M  V30 184 1 172 173
M  V30 185 2 173 174
M  V30 186 1 174 175
M  V30 187 2 175 176
M  V30 188 1 176 177
M  V30 189 2 177 178
M  V30 190 1 172 179
M  V30 191 2 179 180
M  V30 192 1 180 181
M  V30 193 2 181 182
M  V30 194 1 182 183
M  V30 195 2 183 184
M  V30 196 1 171 185
M  V30 197 2 185 186
M  V30 198 1 160 187
M  V30 199 2 187 188
M  V30 200 1 188 157
M  V30 201 1 167 162
M  V30 202 1 186 168
M  V30 203 1 178 173
M  V30 204 1 184 179
M  V30 205 1 158 189
M  V30 206 1 159 190
M  V30 207 1 163 191
M  V30 208 1 164 192
M  V30 209 1 166 193
M  V30 210 1 167 194
M  V30 211 1 169 195
M  V30 212 1 170 196
M  V30 213 1 174 197
M  V30 214 1 175 198
M  V30 215 1 177 199
M  V30 216 1 178 200
M  V30 217 1 180 201
M  V30 218 1 181 202
M  V30 219 1 183 203
M  V30 220 1 184 204
M  V30 221 1 185 205
M  V30 222 1 186 206
M  V30 223 1 187 207
M  V30 224 1 188 208
M  V30 225 2 209 210
M  V30 226 1 210 211
M  V30 227 2 211 212
M  V30 228 1 212 213
M  V30 229 1 213 214
M  V30 230 2 214 215
M  V30 231 1 215 216
M  V30 232 2 216 217
M  V30 233 1 217 218
M  V30 234 2 218 219
M  V30 235 1 213 220
M  V30 236 2 220 221
M  V30 237 1 221 222
M  V30 238 2 222 223
M  V30 239 1 223 224
M  V30 240 1 224 225
M  V30 241 2 225 226
M  V30 242 1 226 227
M  V30 243 2 227 228
M  V30 244 1 228 229
M  V30 245 2 229 230
M  V30 246 1 224 231
M  V30 247 2 231 232
M  V30 248 1 232 233
M  V30 249 2 233 234
M  V30 250 1 234 235
M  V30 251 2 235 236
M  V30 252 1 223 237
M  V30 253 2 237 238
M  V30 254 1 212 239
M  V30 255 2 239 240
M  V30 256 1 240 209
M  V30 257 1 219 214
M  V30 258 1 238 220
M  V30 259 1 230 225
M  V30 260 1 236 231
M  V30 261 1 210 241
M  V30 262 1 211 242
M  V30 263 1 215 243
M  V30 264 1 216 244
M  V30 265 1 218 245
M  V30 266 1 219 246
M  V30 267 1 221 247
M  V30 268 1 222 248
M  V30 269 1 226 249
M  V30 270 1 227 250
M  V30 271 1 229 251
M  V30 272 1 230 252
M  V30 273 1 232 253
M  V30 274 1 233 254
M  V30 275 1 235 255
M  V30 276 1 236 256
M  V30 277 1 237 257
M  V30 278 1 238 258
M  V30 279 1 239 259
M  V30 280 1 240 260
M  V30 281 2 261 262
M  V30 282 1 262 263
M  V30 283 2 263 264
M  V30 284 1 264 265
M  V30 285 1 265 266
M  V30 286 2 266 267
M  V30 287 1 267 268
M  V30 288 2 268 269
M  V30 289 1 269 270
M  V30 290 2 270 271
M  V30 291 1 265 272
M  V30 292 2 272 273
M  V30 293 1 273 274
M  V30 294 2 274 275
M  V30 295 1 275 276
M  V30 296 1 276 277
M  V30 297 2 277 278
M  V30 298 1 278 279
M  V30 299 2 279 280
M  V30 300 1 280 281
M  V30 301 2 281 282
M  V30 302 1 276 283
M  V30 303 2 283 284
M  V30 304 1 284 285
M  V30 305 2 285 286
M  V30 306 1 286 287
M  V30 307 2 287 288
M  V30 308 1 275 289
M  V30 309 2 289 290
M  V30 310 1 264 291
M  V30 311 2 291 292
M  V30 312 1 292 261
M  V30 313 1 271 266
M  V30 314 1 290 272
M  V30 315 1 282 277
M  V30 316 1 288 283
M  V30 317 1 262 293
M  V30 318 1 263 294
M  V30 319 1 267 295
M  V30 320 1 268 296
M  V30 321 1 270 297
M  V30 322 1 271 298
M  V30 323 1 273 299
M  V30 324 1 274 300
M  V30 325 1 278 301
M  V30 326 1 279 302
M  V30 327 1 281 303
M  V30 328 1 282 304
M  V30 329 1 284 305
M  V30 330 1 285 306
M  V30 331 1 287 307
M  V30 332 1 288 308
M  V30 333 1 289 309
M  V30 334 1 290 310
M  V30 335 1 291 311
M  V30 336 1 292 312
M  V30 337 1 314 324
M  V30 338 2 314 321
M  V30 339 1 315 314
M  V30 340 2 316 315
M  V30 341 1 316 318
M  V30 342 1 317 315
M  V30 343 2 318 320
M  V30 344 1 319 316
M  V30 345 1 320 321
M  V30 346 1 320 322
M  V30 347 1 321 323
M  V30 348 2 325 319
M  V30 349 1 326 319
M  V30 350 1 327 337
M  V30 351 2 327 334
M  V30 352 1 328 327
M  V30 353 2 329 328
M  V30 354 1 329 331
M  V30 355 1 330 328
M  V30 356 2 331 333
M  V30 357 1 332 329
M  V30 358 1 333 334
M  V30 359 1 333 335
M  V30 360 1 334 336
M  V30 361 2 338 332
M  V30 362 1 339 332
M  V30 363 1 340 350
M  V30 364 2 340 347
M  V30 365 1 341 340
M  V30 366 2 342 341
M  V30 367 1 342 344
M  V30 368 1 343 341
M  V30 369 2 344 346
M  V30 370 1 345 342
M  V30 371 1 346 347
M  V30 372 1 346 348
M  V30 373 1 347 349
M  V30 374 2 351 345
M  V30 375 1 352 345
M  V30 376 9 325 313
M  V30 377 9 318 313
M  V30 378 9 338 313
M  V30 379 9 331 313
M  V30 380 9 351 313
M  V30 381 9 344 313
M  V30 382 1 354 364
M  V30 383 2 354 361
M  V30 384 1 355 354
M  V30 385 2 356 355
M  V30 386 1 356 358
M  V30 387 1 357 355
M  V30 388 2 358 360
M  V30 389 1 359 356
M  V30 390 1 360 361
M  V30 391 1 360 362
M  V30 392 1 361 363
M  V30 393 2 365 359
M  V30 394 1 366 359
M  V30 395 1 367 377
M  V30 396 2 367 374
M  V30 397 1 368 367
M  V30 398 2 369 368
M  V30 399 1 369 371
M  V30 400 1 370 368
M  V30 401 2 371 373
M  V30 402 1 372 369
M  V30 403 1 373 374
M  V30 404 1 373 375
M  V30 405 1 374 376
M  V30 406 2 378 372
M  V30 407 1 379 372
M  V30 408 1 380 390
M  V30 409 2 380 387
M  V30 410 1 381 380
M  V30 411 2 382 381
M  V30 412 1 382 384
M  V30 413 1 383 381
M  V30 414 2 384 386
M  V30 415 1 385 382
M  V30 416 1 386 387
M  V30 417 1 386 388
M  V30 418 1 387 389
M  V30 419 2 391 385
M  V30 420 1 392 385
M  V30 421 9 365 353
M  V30 422 9 358 353
M  V30 423 9 378 353
M  V30 424 9 371 353
M  V30 425 9 391 353
M  V30 426 9 384 353
M  V30 427 1 394 404
M  V30 428 2 394 401
M  V30 429 1 395 394
M  V30 430 2 396 395
M  V30 431 1 396 398
M  V30 432 1 397 395
M  V30 433 2 398 400
M  V30 434 1 399 396
M  V30 435 1 400 401
M  V30 436 1 400 402
M  V30 437 1 401 403
M  V30 438 2 405 399
M  V30 439 1 406 399
M  V30 440 1 407 417
M  V30 441 2 407 414
M  V30 442 1 408 407
M  V30 443 2 409 408
M  V30 444 1 409 411
M  V30 445 1 410 408
M  V30 446 2 411 413
M  V30 447 1 412 409
M  V30 448 1 413 414
M  V30 449 1 413 415
M  V30 450 1 414 416
M  V30 451 2 418 412
M  V30 452 1 419 412
M  V30 453 1 420 430
M  V30 454 2 420 427
M  V30 455 1 421 420
M  V30 456 2 422 421
M  V30 457 1 422 424
M  V30 458 1 423 421
M  V30 459 2 424 426
M  V30 460 1 425 422
M  V30 461 1 426 427
M  V30 462 1 426 428
M  V30 463 1 427 429
M  V30 464 2 431 425
M  V30 465 1 432 425
M  V30 466 9 405 393
M  V30 467 9 398 393
M  V30 468 9 418 393
M  V30 469 9 411 393
M  V30 470 9 431 393
M  V30 471 9 424 393
M  V30 472 1 434 444
M  V30 473 2 434 441
M  V30 474 1 435 434
M  V30 475 2 436 435
M  V30 476 1 436 438
M  V30 477 1 437 435
M  V30 478 2 438 440
M  V30 479 1 439 436
M  V30 480 1 440 441
M  V30 481 1 440 442
M  V30 482 1 441 443
M  V30 483 2 445 439
M  V30 484 1 446 439
M  V30 485 1 447 457
M  V30 486 2 447 454
M  V30 487 1 448 447
M  V30 488 2 449 448
M  V30 489 1 449 451
M  V30 490 1 450 448
M  V30 491 2 451 453
M  V30 492 1 452 449
M  V30 493 1 453 454
M  V30 494 1 453 455
M  V30 495 1 454 456
M  V30 496 2 458 452
M  V30 497 1 459 452
M  V30 498 1 460 470
M  V30 499 2 460 467
M  V30 500 1 461 460
M  V30 501 2 462 461
M  V30 502 1 462 464
M  V30 503 1 463 461
M  V30 504 2 464 466
M  V30 505 1 465 462
M  V30 506 1 466 467
M  V30 507 1 466 468
M  V30 508 1 467 469
M  V30 509 2 471 465
M  V30 510 1 472 465
M  V30 511 9 445 433
M  V30 512 9 438 433
M  V30 513 9 458 433
M  V30 514 9 451 433
M  V30 515 9 471 433
M  V30 516 9 464 433
M  V30 517 1 474 484
M  V30 518 2 474 481
M  V30 519 1 475 474
M  V30 520 2 476 475
M  V30 521 1 476 478
M  V30 522 1 477 475
M  V30 523 2 478 480
M  V30 524 1 479 476
M  V30 525 1 480 481
M  V30 526 1 480 482
M  V30 527 1 481 483
M  V30 528 2 485 479
M  V30 529 1 486 479
M  V30 530 1 487 497
M  V30 531 2 487 494
M  V30 532 1 488 487
M  V30 533 2 489 488
M  V30 534 1 489 491
M  V30 535 1 490 488
M  V30 536 2 491 493
M  V30 537 1 492 489
M  V30 538 1 493 494
M  V30 539 1 493 495
M  V30 540 1 494 496
M  V30 541 2 498 492
M  V30 542 1 499 492
M  V30 543 1 500 510
M  V30 544 2 500 507
M  V30 545 1 501 500
M  V30 546 2 502 501
M  V30 547 1 502 504
M  V30 548 1 503 501
M  V30 549 2 504 506
M  V30 550 1 505 502
M  V30 551 1 506 507
M  V30 552 1 506 508
M  V30 553 1 507 509
M  V30 554 2 511 505
M  V30 555 1 512 505
M  V30 556 9 485 473
M  V30 557 9 478 473
M  V30 558 9 498 473
M  V30 559 9 491 473
M  V30 560 9 511 473
M  V30 561 9 504 473
M  V30 562 1 514 524
M  V30 563 2 514 521
M  V30 564 1 515 514
M  V30 565 2 516 515
M  V30 566 1 516 518
M  V30 567 1 517 515
M  V30 568 2 518 520
M  V30 569 1 519 516
M  V30 570 1 520 521
M  V30 571 1 520 522
M  V30 572 1 521 523
M  V30 573 2 525 519
M  V30 574 1 526 519
M  V30 575 1 527 537
M  V30 576 2 527 534
M  V30 577 1 528 527
M  V30 578 2 529 528
M  V30 579 1 529 531
M  V30 580 1 530 528
M  V30 581 2 531 533
M  V30 582 1 532 529
M  V30 583 1 533 534
M  V30 584 1 533 535
M  V30 585 1 534 536
M  V30 586 2 538 532
M  V30 587 1 539 532
M  V30 588 1 540 550
M  V30 589 2 540 547
M  V30 590 1 541 540
M  V30 591 2 542 541
M  V30 592 1 542 544
M  V30 593 1 543 541
M  V30 594 2 544 546
M  V30 595 1 545 542
M  V30 596 1 546 547
M  V30 597 1 546 548
M  V30 598 1 547 549
M  V30 599 2 551 545
M  V30 600 1 552 545
M  V30 601 9 525 513
M  V30 602 9 518 513
M  V30 603 9 538 513
M  V30 604 9 531 513
M  V30 605 9 551 513
M  V30 606 9 544 513
M  V30 607 1 554 564
M  V30 608 2 554 561
M  V30 609 1 555 554
M  V30 610 2 556 555
M  V30 611 1 556 558
M  V30 612 1 557 555
M  V30 613 2 558 560
M  V30 614 1 559 556
M  V30 615 1 560 561
M  V30 616 1 560 562
M  V30 617 1 561 563
M  V30 618 2 565 559
M  V30 619 1 566 559
M  V30 620 1 567 577
M  V30 621 2 567 574
M  V30 622 1 568 567
M  V30 623 2 569 568
M  V30 624 1 569 571
M  V30 625 1 570 568
M  V30 626 2 571 573
M  V30 627 1 572 569
M  V30 628 1 573 574
M  V30 629 1 573 575
M  V30 630 1 574 576
M  V30 631 2 578 572
M  V30 632 1 579 572
M  V30 633 1 580 590
M  V30 634 2 580 587
M  V30 635 1 581 580
M  V30 636 2 582 581
M  V30 637 1 582 584
M  V30 638 1 583 581
M  V30 639 2 584 586
M  V30 640 1 585 582
M  V30 641 1 586 587
M  V30 642 1 586 588
M  V30 643 1 587 589
M  V30 644 2 591 585
M  V30 645 1 592 585
M  V30 646 9 565 553
M  V30 647 9 558 553
M  V30 648 9 591 553
M  V30 649 9 584 553
M  V30 650 9 578 553
M  V30 651 9 571 553
M  V30 652 1 594 604
M  V30 653 2 594 601
M  V30 654 1 595 594
M  V30 655 2 596 595
M  V30 656 1 596 598
M  V30 657 1 597 595
M  V30 658 2 598 600
M  V30 659 1 599 596
M  V30 660 1 600 601
M  V30 661 1 600 602
M  V30 662 1 601 603
M  V30 663 2 605 599
M  V30 664 1 606 599
M  V30 665 1 607 617
M  V30 666 2 607 614
M  V30 667 1 608 607
M  V30 668 2 609 608
M  V30 669 1 609 611
M  V30 670 1 610 608
M  V30 671 2 611 613
M  V30 672 1 612 609
M  V30 673 1 613 614
M  V30 674 1 613 615
M  V30 675 1 614 616
M  V30 676 2 618 612
M  V30 677 1 619 612
M  V30 678 1 620 630
M  V30 679 2 620 627
M  V30 680 1 621 620
M  V30 681 2 622 621
M  V30 682 1 622 624
M  V30 683 1 623 621
M  V30 684 2 624 626
M  V30 685 1 625 622
M  V30 686 1 626 627
M  V30 687 1 626 628
M  V30 688 1 627 629
M  V30 689 2 631 625
M  V30 690 1 632 625
M  V30 691 9 605 593
M  V30 692 9 598 593
M  V30 693 9 631 593
M  V30 694 9 624 593
M  V30 695 9 618 593
M  V30 696 9 611 593
M  V30 697 1 9 325
M  V30 698 1 20 565
M  V30 699 1 26 365
M  V30 700 1 1 405
M  V30 701 1 53 445
M  V30 702 1 61 485
M  V30 703 1 72 591
M  V30 704 1 78 351
M  V30 705 1 113 458
M  V30 706 1 124 338
M  V30 707 1 130 431
M  V30 708 1 105 605
M  V30 709 1 165 418
M  V30 710 1 176 391
M  V30 711 1 182 525
M  V30 712 1 157 631
M  V30 713 1 209 498
M  V30 714 1 217 471
M  V30 715 1 228 618
M  V30 716 1 234 551
M  V30 717 1 261 578
M  V30 718 1 269 511
M  V30 719 1 280 538
M  V30 720 1 286 378
M  V30 END BOND
M  V30 END CTAB
M  END

$$$$
