
     RDKit          3D

  0  0  0  0  0  0  0  0  0  0999 V3000
M  V30 BEGIN CTAB
M  V30 COUNTS 608 696 0 0 0
M  V30 BEGIN ATOM
M  V30 1 C -4.3577 -4.1067 6.9202 0
M  V30 2 C -3.7703 -3.6889 5.7254 0
M  V30 3 C -2.6464 -2.8865 5.7494 0
M  V30 4 C -2.0799 -2.5008 6.9636 0
M  V30 5 C -1.1211 -1.3734 6.9587 0
M  V30 6 C -1.6998 -0.1614 7.3038 0
M  V30 7 C -1.0268 1.0496 7.1775 0
M  V30 8 C -1.8489 2.2392 7.4288 0
M  V30 9 C -2.6898 2.2626 8.5477 0
M  V30 10 C -3.7560 3.1283 8.6173 0
M  V30 11 C -4.0188 3.9991 7.5477 0
M  V30 12 C -3.0486 4.1246 6.5450 0
M  V30 13 C -1.9848 3.2492 6.4740 0
M  V30 14 C 0.2811 1.0395 6.6815 0
M  V30 15 C 1.0814 2.2839 6.6078 0
M  V30 16 C 1.4411 2.8565 5.3888 0
M  V30 17 C 2.2431 3.9818 5.3551 0
M  V30 18 C 2.7258 4.5288 6.5434 0
M  V30 19 C 2.3234 3.9933 7.7666 0
M  V30 20 C 1.5064 2.8797 7.7930 0
M  V30 21 C 0.8686 -0.1758 6.3495 0
M  V30 22 C 0.1971 -1.3915 6.4933 0
M  V30 23 C 0.9530 -2.6442 6.2972 0
M  V30 24 C 1.0401 -3.5396 7.3638 0
M  V30 25 C 1.9056 -4.6128 7.3129 0
M  V30 26 C 2.7126 -4.8118 6.1887 0
M  V30 27 C 2.5721 -3.9691 5.0854 0
M  V30 28 C 1.6951 -2.9002 5.1418 0
M  V30 29 C -2.6184 -2.9929 8.1513 0
M  V30 30 C -3.7461 -3.7906 8.1360 0
M  V30 31 H -4.2561 -3.9359 4.7953 0
M  V30 32 H -2.2340 -2.5129 4.8259 0
M  V30 33 H -2.7258 -0.1570 7.6363 0
M  V30 34 H -2.5216 1.5727 9.3609 0
M  V30 35 H -4.3840 3.1148 9.4943 0
M  V30 36 H -3.1845 4.8918 5.7964 0
M  V30 37 H -1.2967 3.3031 5.6464 0
M  V30 38 H 1.0849 2.4211 4.4684 0
M  V30 39 H 2.4676 4.4877 4.4289 0
M  V30 40 H 2.6967 4.4208 8.6851 0
M  V30 41 H 1.2153 2.4606 8.7438 0
M  V30 42 H 1.8890 -0.1752 6.0017 0
M  V30 43 H 0.4660 -3.3686 8.2604 0
M  V30 44 H 2.0233 -5.2521 8.1748 0
M  V30 45 H 3.1531 -4.1791 4.2001 0
M  V30 46 H 1.5776 -2.2567 4.2838 0
M  V30 47 H -2.1776 -2.7260 9.1002 0
M  V30 48 H -4.1542 -4.1719 9.0606 0
M  V30 49 C 5.9763 2.6521 4.5197 0
M  V30 50 C 4.9517 2.7818 3.5841 0
M  V30 51 C 5.0389 2.1404 2.3660 0
M  V30 52 C 6.1577 1.3706 2.0553 0
M  V30 53 C 6.2326 0.6563 0.7654 0
M  V30 54 C 6.2601 1.3516 -0.4328 0
M  V30 55 C 6.3421 0.6830 -1.6508 0
M  V30 56 C 6.3650 1.4684 -2.8992 0
M  V30 57 C 7.2940 2.4996 -3.0406 0
M  V30 58 C 7.3191 3.2782 -4.1795 0
M  V30 59 C 6.4280 3.0134 -5.2175 0
M  V30 60 C 5.5061 1.9751 -5.0944 0
M  V30 61 C 5.4612 1.2291 -3.9327 0
M  V30 62 C 6.4168 -0.7135 -1.6567 0
M  V30 63 C 6.5215 -1.4838 -2.9185 0
M  V30 64 C 5.3685 -1.9747 -3.5288 0
M  V30 65 C 5.4566 -2.7249 -4.6820 0
M  V30 66 C 6.7054 -3.0266 -5.2245 0
M  V30 67 C 7.8603 -2.5163 -4.6349 0
M  V30 68 C 7.7625 -1.7506 -3.4872 0
M  V30 69 C 6.3942 -1.4108 -0.4554 0
M  V30 70 C 6.2875 -0.7431 0.7554 0
M  V30 71 C 6.1512 -1.4694 2.0308 0
M  V30 72 C 7.1388 -2.3373 2.4887 0
M  V30 73 C 6.9957 -2.9851 3.7009 0
M  V30 74 C 5.8585 -2.7746 4.4806 0
M  V30 75 C 4.8744 -1.8902 4.0313 0
M  V30 76 C 5.0143 -1.2617 2.8130 0
M  V30 77 C 7.1901 1.2591 2.9857 0
M  V30 78 C 7.1019 1.8843 4.2134 0
M  V30 79 H 4.0814 3.3515 3.8557 0
M  V30 80 H 4.2318 2.2187 1.6556 0
M  V30 81 H 6.2149 2.4284 -0.4280 0
M  V30 82 H 8.0146 2.6870 -2.2601 0
M  V30 83 H 8.0500 4.0617 -4.2971 0
M  V30 84 H 4.7982 1.8091 -5.8906 0
M  V30 85 H 4.7044 0.4718 -3.8237 0
M  V30 86 H 4.4032 -1.7743 -3.0914 0
M  V30 87 H 4.5760 -3.0417 -5.2158 0
M  V30 88 H 8.8269 -2.7624 -5.0487 0
M  V30 89 H 8.6622 -1.3693 -3.0293 0
M  V30 90 H 6.4424 -2.4875 -0.4710 0
M  V30 91 H 8.0364 -2.4885 1.9090 0
M  V30 92 H 7.7874 -3.6097 4.0782 0
M  V30 93 H 3.9864 -1.7433 4.6226 0
M  V30 94 H 4.2344 -0.6119 2.4524 0
M  V30 95 H 8.0717 0.6862 2.7457 0
M  V30 96 H 7.9197 1.8249 4.9149 0
M  V30 97 C -3.5130 6.8453 -4.0929 0
M  V30 98 C -2.9605 5.5983 -3.7971 0
M  V30 99 C -2.1540 5.4559 -2.6875 0
M  V30 100 C -1.9298 6.5339 -1.8277 0
M  V30 101 C -0.7922 6.4588 -0.8901 0
M  V30 102 C 0.4374 6.2598 -1.5216 0
M  V30 103 C 1.6427 6.2715 -0.8385 0
M  V30 104 C 2.8735 6.2141 -1.6510 0
M  V30 105 C 3.7448 7.3021 -1.6700 0
M  V30 106 C 4.8274 7.3147 -2.5252 0
M  V30 107 C 5.0524 6.2347 -3.3838 0
M  V30 108 C 4.1953 5.1329 -3.3520 0
M  V30 109 C 3.1183 5.1244 -2.4896 0
M  V30 110 C 1.6309 6.4199 0.5559 0
M  V30 111 C 2.8414 6.3403 1.3804 0
M  V30 112 C 3.8849 5.4706 1.0535 0
M  V30 113 C 4.9793 5.3363 1.8816 0
M  V30 114 C 5.0177 6.0152 3.1019 0
M  V30 115 C 3.9867 6.8968 3.4317 0
M  V30 116 C 2.9321 7.0798 2.5646 0
M  V30 117 C 0.4008 6.5762 1.1845 0
M  V30 118 C -0.8063 6.6279 0.4910 0
M  V30 119 C -1.9672 6.8128 1.3943 0
M  V30 120 C -2.2222 8.0782 1.9238 0
M  V30 121 C -2.9586 8.2200 3.0810 0
M  V30 122 C -3.4541 7.0868 3.7404 0
M  V30 123 C -3.3703 5.8484 3.0983 0
M  V30 124 C -2.6205 5.7112 1.9457 0
M  V30 125 C -2.6129 7.7289 -2.0451 0
M  V30 126 C -3.3801 7.8963 -3.1838 0
M  V30 127 H -3.0999 4.7923 -4.4984 0
M  V30 128 H -1.6711 4.5120 -2.4925 0
M  V30 129 H 0.4516 6.1561 -2.5946 0
M  V30 130 H 3.5593 8.1544 -1.0355 0
M  V30 131 H 5.4595 8.1880 -2.5817 0
M  V30 132 H 4.4076 4.2899 -3.9908 0
M  V30 133 H 2.4657 4.2662 -2.4522 0
M  V30 134 H 3.8262 4.8755 0.1581 0
M  V30 135 H 5.7707 4.6493 1.6316 0
M  V30 136 H 4.0501 7.4584 4.3498 0
M  V30 137 H 2.1751 7.8067 2.8108 0
M  V30 138 H 0.3674 6.6481 2.2596 0
M  V30 139 H -1.7942 8.9555 1.4626 0
M  V30 140 H -3.1412 9.2048 3.4836 0
M  V30 141 H -3.8253 4.9866 3.5562 0
M  V30 142 H -2.4802 4.7353 1.5097 0
M  V30 143 H -2.4913 8.5569 -1.3647 0
M  V30 144 H -3.8712 8.8380 -3.3785 0
M  V30 145 C -6.2724 4.3323 -3.5666 0
M  V30 146 C -5.5309 4.3080 -2.3832 0
M  V30 147 C -5.4973 3.1622 -1.6248 0
M  V30 148 C -6.2719 2.0458 -1.9700 0
M  V30 149 C -6.4031 0.9918 -0.9561 0
M  V30 150 C -6.4456 1.4263 0.3694 0
M  V30 151 C -6.4479 0.5900 1.4840 0
M  V30 152 C -6.5443 1.3989 2.7219 0
M  V30 153 C -7.7321 2.1219 2.8882 0
M  V30 154 C -7.7341 3.3202 3.5638 0
M  V30 155 C -6.5408 3.8132 4.1120 0
M  V30 156 C -5.4431 2.9510 4.1977 0
M  V30 157 C -5.4365 1.7637 3.4853 0
M  V30 158 C -6.3485 -0.7833 1.2688 0
M  V30 159 C -6.2161 -1.8946 2.2264 0
M  V30 160 C -5.3294 -2.9158 1.8561 0
M  V30 161 C -5.4112 -4.1642 2.4269 0
M  V30 162 C -6.3437 -4.3935 3.4419 0
M  V30 163 C -7.0908 -3.3322 3.9503 0
M  V30 164 C -7.0425 -2.0940 3.3286 0
M  V30 165 C -6.4422 -1.2193 -0.0551 0
M  V30 166 C -6.5074 -0.3834 -1.1634 0
M  V30 167 C -6.7056 -1.1849 -2.3931 0
M  V30 168 C -7.9776 -1.7374 -2.5850 0
M  V30 169 C -8.1330 -2.9235 -3.2665 0
M  V30 170 C -7.0042 -3.5823 -3.7789 0
M  V30 171 C -5.7973 -2.8774 -3.8332 0
M  V30 172 C -5.6387 -1.7015 -3.1255 0
M  V30 173 C -6.9243 2.0438 -3.2027 0
M  V30 174 C -6.9027 3.1685 -4.0111 0
M  V30 175 H -4.9725 5.1813 -2.0880 0
M  V30 176 H -4.8797 3.1362 -0.7425 0
M  V30 177 H -6.5030 2.4872 0.5527 0
M  V30 178 H -8.6389 1.7848 2.4092 0
M  V30 179 H -8.6436 3.8960 3.6465 0
M  V30 180 H -4.5635 3.2622 4.7369 0
M  V30 181 H -4.5400 1.1661 3.4507 0
M  V30 182 H -4.6018 -2.7300 1.0828 0
M  V30 183 H -4.7675 -4.9703 2.1114 0
M  V30 184 H -7.7746 -3.5119 4.7650 0
M  V30 185 H -7.6999 -1.3086 3.6669 0
M  V30 186 H -6.4952 -2.2819 -0.2329 0
M  V30 187 H -8.8391 -1.2743 -2.1281 0
M  V30 188 H -9.1172 -3.3519 -3.3784 0
M  V30 189 H -4.9650 -3.3125 -4.3566 0
M  V30 190 H -4.6713 -1.2295 -3.0715 0
M  V30 191 H -7.4889 1.1804 -3.5167 0
M  V30 192 H -7.4426 3.1879 -4.9449 0
M  V30 193 C -3.8019 3.6236 -6.8737 0
M  V30 194 C -3.6335 2.8762 -5.7059 0
M  V30 195 C -2.5363 2.0482 -5.5806 0
M  V30 196 C -1.5689 1.9872 -6.5864 0
M  V30 197 C -0.6148 0.8599 -6.5877 0
M  V30 198 C -1.2250 -0.3877 -6.5945 0
M  V30 199 C -0.5119 -1.5715 -6.7274 0
M  V30 200 C -1.4132 -2.7440 -6.8141 0
M  V30 201 C -1.9594 -3.0986 -8.0477 0
M  V30 202 C -3.1276 -3.8308 -8.1107 0
M  V30 203 C -3.7508 -4.2555 -6.9306 0
M  V30 204 C -3.0591 -4.1168 -5.7232 0
M  V30 205 C -1.9345 -3.3221 -5.6566 0
M  V30 206 C 0.8825 -1.5243 -6.8230 0
M  V30 207 C 1.7063 -2.7383 -6.9171 0
M  V30 208 C 2.8904 -2.7442 -7.6615 0
M  V30 209 C 3.7275 -3.8417 -7.6576 0
M  V30 210 C 3.3758 -4.9883 -6.9430 0
M  V30 211 C 2.1613 -5.0184 -6.2535 0
M  V30 212 C 1.3573 -3.8986 -6.2221 0
M  V30 213 C 1.4951 -0.2703 -6.7918 0
M  V30 214 C 0.7794 0.9201 -6.6904 0
M  V30 215 C 1.5093 2.1964 -6.6502 0
M  V30 216 C 2.5523 2.4316 -7.5476 0
M  V30 217 C 3.2981 3.5901 -7.4760 0
M  V30 218 C 3.0121 4.5514 -6.5059 0
M  V30 219 C 1.9426 4.3395 -5.6313 0
M  V30 220 C 1.2093 3.1718 -5.6982 0
M  V30 221 C -1.6832 2.8314 -7.6884 0
M  V30 222 C -2.8054 3.6253 -7.8476 0
M  V30 223 H -4.4151 2.8833 -4.9621 0
M  V30 224 H -2.4388 1.4210 -4.7089 0
M  V30 225 H -2.3012 -0.4392 -6.5426 0
M  V30 226 H -1.5102 -2.7400 -8.9610 0
M  V30 227 H -3.5617 -4.0622 -9.0714 0
M  V30 228 H -3.4510 -4.5776 -4.8323 0
M  V30 229 H -1.4956 -3.1017 -4.6956 0
M  V30 230 H 3.1613 -1.8889 -8.2588 0
M  V30 231 H 4.6396 -3.8409 -8.2319 0
M  V30 232 H 1.8988 -5.8967 -5.6859 0
M  V30 233 H 0.4618 -3.9228 -5.6279 0
M  V30 234 H 2.5716 -0.2206 -6.8162 0
M  V30 235 H 2.7682 1.7153 -8.3251 0
M  V30 236 H 4.0706 3.7860 -8.2003 0
M  V30 237 H 1.7340 5.0726 -4.8696 0
M  V30 238 H 0.4106 2.9987 -4.9962 0
M  V30 239 H -0.9319 2.8186 -8.4625 0
M  V30 240 H -2.9191 4.2399 -8.7278 0
M  V30 241 C -3.3806 -6.7878 4.0268 0
M  V30 242 C -2.3157 -5.8867 4.0182 0
M  V30 243 C -1.5486 -5.7417 2.8863 0
M  V30 244 C -1.7460 -6.5641 1.7688 0
M  V30 245 C -0.6546 -6.6086 0.7816 0
M  V30 246 C 0.6211 -6.5777 1.3487 0
M  V30 247 C 1.7929 -6.5904 0.6094 0
M  V30 248 C 3.0462 -6.5251 1.3767 0
M  V30 249 C 3.1914 -7.3943 2.4604 0
M  V30 250 C 4.2488 -7.2607 3.3310 0
M  V30 251 C 5.2033 -6.2702 3.1082 0
M  V30 252 C 5.1099 -5.4467 1.9884 0
M  V30 253 C 4.0229 -5.5606 1.1410 0
M  V30 254 C 1.7026 -6.6174 -0.7862 0
M  V30 255 C 2.8803 -6.5494 -1.6636 0
M  V30 256 C 2.8828 -5.6342 -2.7183 0
M  V30 257 C 3.9696 -5.5357 -3.5590 0
M  V30 258 C 5.0976 -6.3306 -3.3570 0
M  V30 259 C 5.0876 -7.2707 -2.3190 0
M  V30 260 C 3.9894 -7.3780 -1.4888 0
M  V30 261 C 0.4390 -6.7184 -1.3554 0
M  V30 262 C -0.7402 -6.7395 -0.6078 0
M  V30 263 C -1.9483 -6.9159 -1.4413 0
M  V30 264 C -2.0038 -8.0840 -2.2097 0
M  V30 265 C -2.8514 -8.1810 -3.2884 0
M  V30 266 C -3.6677 -7.0943 -3.6382 0
M  V30 267 C -3.7736 -6.0266 -2.7391 0
M  V30 268 C -2.9074 -5.9284 -1.6631 0
M  V30 269 C -2.8556 -7.4066 1.7569 0
M  V30 270 C -3.6826 -7.4996 2.8661 0
M  V30 271 H -2.1076 -5.3071 4.9019 0
M  V30 272 H -0.7615 -5.0059 2.8780 0
M  V30 273 H 0.7117 -6.5563 2.4223 0
M  V30 274 H 2.4711 -8.1813 2.6208 0
M  V30 275 H 4.3664 -7.9332 4.1646 0
M  V30 276 H 5.8527 -4.6799 1.8395 0
M  V30 277 H 3.9149 -4.8805 0.3122 0
M  V30 278 H 2.0366 -4.9811 -2.8575 0
M  V30 279 H 3.9875 -4.8144 -4.3555 0
M  V30 280 H 5.9160 -7.9526 -2.2007 0
M  V30 281 H 3.9884 -8.1254 -0.7109 0
M  V30 282 H 0.3632 -6.8015 -2.4281 0
M  V30 283 H -1.3479 -8.9094 -1.9780 0
M  V30 284 H -2.8852 -9.0957 -3.8599 0
M  V30 285 H -4.4981 -5.2492 -2.9309 0
M  V30 286 H -2.9287 -5.0547 -1.0325 0
M  V30 287 H -3.0508 -8.0375 0.9043 0
M  V30 288 H -4.5010 -8.2006 2.8744 0
M  V30 289 Zn 5.8383 -5.5456 6.0543 0 CHG=2
M  V30 290 C 5.1394 -10.1857 7.4004 0
M  V30 291 C 4.1134 -9.2676 7.2369 0
M  V30 292 C 4.4301 -7.9664 6.8513 0
M  V30 293 H 3.0882 -9.5578 7.4035 0
M  V30 294 N 5.6960 -7.5744 6.6324 0
M  V30 295 C 3.4126 -6.9544 6.6778 0
M  V30 296 C 6.6695 -8.4557 6.7889 0
M  V30 297 C 6.4435 -9.7719 7.1713 0
M  V30 298 H 7.6753 -8.1093 6.6093 0
M  V30 299 H 7.2710 -10.4524 7.2911 0
M  V30 300 H 4.9318 -11.2009 7.7013 0
M  V30 301 N 3.7006 -5.8043 6.1948 0
M  V30 302 H 2.4002 -7.2163 6.9729 0
M  V30 303 C 4.7741 -3.5644 10.3562 0
M  V30 304 C 4.7970 -2.8558 9.1643 0
M  V30 305 C 5.2064 -3.5079 8.0040 0
M  V30 306 H 4.4996 -1.8197 9.1350 0
M  V30 307 N 5.5578 -4.8055 8.0017 0
M  V30 308 C 5.3206 -2.8276 6.7327 0
M  V30 309 C 5.5478 -5.4728 9.1438 0
M  V30 310 C 5.1676 -4.8945 10.3486 0
M  V30 311 H 5.8541 -6.5068 9.1038 0
M  V30 312 H 5.1812 -5.4794 11.2543 0
M  V30 313 H 4.4631 -3.0958 11.2768 0
M  V30 314 N 5.7219 -3.4622 5.6948 0
M  V30 315 H 5.1035 -1.7626 6.7066 0
M  V30 316 C 10.6684 -5.9570 5.6635 0
M  V30 317 C 9.7891 -6.1534 4.6074 0
M  V30 318 C 8.4285 -5.9552 4.8245 0
M  V30 319 H 10.1536 -6.4622 3.6404 0
M  V30 320 N 7.9456 -5.5713 6.0189 0
M  V30 321 C 7.4364 -6.1546 3.7823 0
M  V30 322 C 8.7879 -5.3746 7.0186 0
M  V30 323 C 10.1601 -5.5570 6.8905 0
M  V30 324 H 8.3577 -5.0592 7.9568 0
M  V30 325 H 10.8130 -5.3896 7.7319 0
M  V30 326 H 11.7284 -6.1106 5.5326 0
M  V30 327 N 6.1976 -6.0930 4.0782 0
M  V30 328 H 7.7862 -6.3726 2.7765 0
M  V30 329 Zn -6.1143 -6.5334 5.7605 0 CHG=2
M  V30 330 C -10.0750 -5.3803 8.3091 0
M  V30 331 C -8.8485 -4.7484 8.4488 0
M  V30 332 C -7.8030 -5.1155 7.6037 0
M  V30 333 H -8.7057 -3.9885 9.2010 0
M  V30 334 N -7.9484 -6.0588 6.6596 0
M  V30 335 C -6.5069 -4.4781 7.6752 0
M  V30 336 C -9.1248 -6.6471 6.5203 0
M  V30 337 C -10.2190 -6.3434 7.3208 0
M  V30 338 H -9.2058 -7.3919 5.7434 0
M  V30 339 H -11.1584 -6.8521 7.1765 0
M  V30 340 H -10.9022 -5.1267 8.9539 0
M  V30 341 N -5.5808 -4.7829 6.8462 0
M  V30 342 H -6.3761 -3.7071 8.4304 0
M  V30 343 C -4.1103 -8.4690 9.7466 0
M  V30 344 C -3.4007 -8.1118 8.6103 0
M  V30 345 C -4.1017 -7.6559 7.4964 0
M  V30 346 H -2.3258 -8.1926 8.5877 0
M  V30 347 N -5.4382 -7.5328 7.4964 0
M  V30 348 C -3.4383 -7.3426 6.2499 0
M  V30 349 C -6.1113 -7.8939 8.5759 0
M  V30 350 C -5.4937 -8.3702 9.7254 0
M  V30 351 H -7.1864 -7.8069 8.5321 0
M  V30 352 H -6.0868 -8.6551 10.5795 0
M  V30 353 H -3.6034 -8.8264 10.6295 0
M  V30 354 N -4.1077 -7.0057 5.2133 0
M  V30 355 H -2.3579 -7.4660 6.2150 0
M  V30 356 C -7.7560 -10.2310 3.0893 0
M  V30 357 C -7.5402 -8.9495 2.6026 0
M  V30 358 C -7.0733 -7.9717 3.4779 0
M  V30 359 H -7.7344 -8.7143 1.5683 0
M  V30 360 N -6.8125 -8.2361 4.7693 0
M  V30 361 C -6.8504 -6.6016 3.0604 0
M  V30 362 C -7.0134 -9.4598 5.2270 0
M  V30 363 C -7.4890 -10.4915 4.4252 0
M  V30 364 H -6.7876 -9.6319 6.2682 0
M  V30 365 H -7.6426 -11.4735 4.8428 0
M  V30 366 H -8.1227 -11.0151 2.4453 0
M  V30 367 N -6.5452 -5.7016 3.9179 0
M  V30 368 H -6.9789 -6.3653 2.0059 0
M  V30 369 Zn 5.9524 5.8811 -6.3988 0 CHG=2
M  V30 370 C 6.7821 4.6397 -11.0201 0
M  V30 371 C 6.8493 3.7479 -9.9584 0
M  V30 372 C 6.5401 4.2052 -8.6805 0
M  V30 373 H 7.1431 2.7231 -10.1213 0
M  V30 374 N 6.1702 5.4765 -8.4490 0
M  V30 375 C 6.5909 3.3444 -7.5122 0
M  V30 376 C 6.0986 6.3202 -9.4639 0
M  V30 377 C 6.3975 5.9486 -10.7700 0
M  V30 378 H 5.7898 7.3285 -9.2341 0
M  V30 379 H 6.3282 6.6687 -11.5693 0
M  V30 380 H 7.0213 4.3223 -12.0232 0
M  V30 381 N 6.4243 3.8430 -6.3495 0
M  V30 382 H 6.7851 2.2855 -7.6666 0
M  V30 383 C 10.5674 7.2931 -5.5653 0
M  V30 384 C 9.5796 7.2494 -4.5937 0
M  V30 385 C 8.3068 6.8054 -4.9477 0
M  V30 386 H 9.7924 7.5570 -3.5820 0
M  V30 387 N 8.0092 6.4111 -6.1965 0
M  V30 388 C 7.2303 6.7379 -3.9860 0
M  V30 389 C 8.9582 6.4495 -7.1164 0
M  V30 390 C 10.2511 6.8842 -6.8526 0
M  V30 391 H 8.6877 6.1281 -8.1102 0
M  V30 392 H 10.9884 6.9046 -7.6388 0
M  V30 393 H 11.5620 7.6384 -5.3287 0
M  V30 394 N 6.0967 6.2385 -4.3103 0
M  V30 395 H 7.4360 7.1043 -2.9841 0
M  V30 396 C 4.2546 10.4391 -6.2335 0
M  V30 397 C 3.4522 9.3121 -6.1436 0
M  V30 398 C 4.0371 8.0565 -6.2922 0
M  V30 399 H 2.3929 9.4057 -5.9654 0
M  V30 400 N 5.3557 7.9045 -6.4993 0
M  V30 401 C 3.2519 6.8418 -6.2885 0
M  V30 402 C 6.1134 8.9838 -6.6010 0
M  V30 403 C 5.6096 10.2728 -6.4792 0
M  V30 404 H 7.1639 8.8258 -6.7922 0
M  V30 405 H 6.2683 11.1209 -6.5760 0
M  V30 406 H 3.8385 11.4287 -6.1251 0
M  V30 407 N 3.8122 5.7012 -6.4452 0
M  V30 408 H 2.1723 6.9467 -6.2106 0
M  V30 409 Zn -5.8175 6.0496 -6.2083 0 CHG=2
M  V30 410 C -4.2843 9.3201 -9.5110 0
M  V30 411 C -3.8145 9.2375 -8.2095 0
M  V30 412 C -4.2345 8.1780 -7.4080 0
M  V30 413 H -3.1389 9.9836 -7.8221 0
M  V30 414 N -5.0773 7.2323 -7.8525 0
M  V30 415 C -3.7520 8.0135 -6.0571 0
M  V30 416 C -5.5055 7.3084 -9.1018 0
M  V30 417 C -5.1412 8.3302 -9.9692 0
M  V30 418 H -6.1706 6.5289 -9.4396 0
M  V30 419 H -5.5249 8.3502 -10.9765 0
M  V30 420 H -3.9892 10.1329 -10.1563 0
M  V30 421 N -4.1032 7.0030 -5.3563 0
M  V30 422 H -3.0441 8.7511 -5.6868 0
M  V30 423 C -7.8192 10.0853 -4.2903 0
M  V30 424 C -7.5133 8.9364 -3.5778 0
M  V30 425 C -7.0323 7.8266 -4.2689 0
M  V30 426 H -7.6520 8.8998 -2.5091 0
M  V30 427 N -6.8342 7.8416 -5.5969 0
M  V30 428 C -6.7798 6.5650 -3.6127 0
M  V30 429 C -7.1561 8.9311 -6.2739 0
M  V30 430 C -7.6516 10.0777 -5.6674 0
M  V30 431 H -7.0241 8.8959 -7.3440 0
M  V30 432 H -7.9001 10.9402 -6.2645 0
M  V30 433 H -8.1930 10.9663 -3.7922 0
M  V30 434 N -6.4251 5.5299 -4.2804 0
M  V30 435 H -6.9671 6.5144 -2.5422 0
M  V30 436 C -9.2173 4.5769 -9.3044 0
M  V30 437 C -7.9359 4.0483 -9.2379 0
M  V30 438 C -7.0819 4.4898 -8.2298 0
M  V30 439 H -7.6078 3.3125 -9.9552 0
M  V30 440 N -7.4624 5.4047 -7.3231 0
M  V30 441 C -5.7460 3.9518 -8.0587 0
M  V30 442 C -8.6893 5.8922 -7.3798 0
M  V30 443 C -9.6044 5.5103 -8.3539 0
M  V30 444 H -8.9599 6.6133 -6.6241 0
M  V30 445 H -10.5942 5.9372 -8.3681 0
M  V30 446 H -9.9019 4.2662 -10.0784 0
M  V30 447 N -5.0327 4.2848 -7.0517 0
M  V30 448 H -5.4103 3.2096 -8.7807 0
M  V30 449 Zn 5.7321 5.4004 6.0738 0 CHG=2
M  V30 450 C 5.1520 9.9162 7.7527 0
M  V30 451 C 4.1494 8.9568 7.7596 0
M  V30 452 C 4.4156 7.7070 7.2064 0
M  V30 453 H 3.1835 9.1752 8.1870 0
M  V30 454 N 5.6090 7.4056 6.6671 0
M  V30 455 C 3.4277 6.6456 7.1732 0
M  V30 456 C 6.5583 8.3252 6.6560 0
M  V30 457 C 6.3779 9.5965 7.1878 0
M  V30 458 H 7.5010 8.0441 6.2125 0
M  V30 459 H 7.1813 10.3150 7.1652 0
M  V30 460 H 4.9837 10.8928 8.1797 0
M  V30 461 N 3.6512 5.5829 6.4999 0
M  V30 462 H 2.5013 6.8004 7.7212 0
M  V30 463 C 6.1266 3.3262 10.4993 0
M  V30 464 C 6.1909 2.6251 9.3052 0
M  V30 465 C 6.0502 3.3215 8.1074 0
M  V30 466 H 6.3537 1.5593 9.3032 0
M  V30 467 N 5.8413 4.6478 8.0721 0
M  V30 468 C 6.1232 2.6649 6.8231 0
M  V30 469 C 5.7843 5.3112 9.2157 0
M  V30 470 C 5.9225 4.6975 10.4537 0
M  V30 471 H 5.6286 6.3767 9.1529 0
M  V30 472 H 5.8768 5.2850 11.3566 0
M  V30 473 H 6.2376 2.8229 11.4471 0
M  V30 474 N 5.8433 3.3064 5.7518 0
M  V30 475 H 6.4115 1.6176 6.8033 0
M  V30 476 C 10.5602 5.2009 5.3308 0
M  V30 477 C 9.6216 5.3578 4.3227 0
M  V30 478 C 8.2737 5.4361 4.6656 0
M  V30 479 H 9.9301 5.4262 3.2917 0
M  V30 480 N 7.8546 5.3444 5.9393 0
M  V30 481 C 7.2432 5.6599 3.6774 0
M  V30 482 C 8.7562 5.2037 6.8968 0
M  V30 483 C 10.1198 5.1294 6.6445 0
M  V30 484 H 8.3851 5.1513 7.9085 0
M  V30 485 H 10.8170 5.0209 7.4596 0
M  V30 486 H 11.6133 5.1425 5.1029 0
M  V30 487 N 6.0232 5.7954 4.0422 0
M  V30 488 H 7.5529 5.7527 2.6402 0
M  V30 489 Zn -5.6885 6.2818 6.0499 0 CHG=2
M  V30 490 C -9.8223 5.3676 8.4664 0
M  V30 491 C -8.6342 4.6799 8.6498 0
M  V30 492 C -7.5232 5.0324 7.8817 0
M  V30 493 H -8.5665 3.8901 9.3814 0
M  V30 494 N -7.5757 6.0093 6.9634 0
M  V30 495 C -6.2585 4.3599 8.0515 0
M  V30 496 C -8.7154 6.6575 6.7896 0
M  V30 497 C -9.8647 6.3779 7.5158 0
M  V30 498 H -8.7207 7.4365 6.0437 0
M  V30 499 H -10.7690 6.9386 7.3431 0
M  V30 500 H -10.6967 5.1253 9.0506 0
M  V30 501 N -5.2141 4.6887 7.3780 0
M  V30 502 H -6.2547 3.5527 8.7775 0
M  V30 503 C -3.7574 9.3394 9.3034 0
M  V30 504 C -3.2289 9.1272 8.0404 0
M  V30 505 C -3.8690 8.2318 7.1834 0
M  V30 506 H -2.3429 9.6533 7.7221 0
M  V30 507 N -4.9706 7.5598 7.5507 0
M  V30 508 C -3.3959 8.0120 5.8383 0
M  V30 509 C -5.4683 7.7640 8.7588 0
M  V30 510 C -4.9026 8.6465 9.6694 0
M  V30 511 H -6.3581 7.2124 9.0196 0
M  V30 512 H -5.3521 8.7882 10.6390 0
M  V30 513 H -3.2947 10.0318 9.9896 0
M  V30 514 N -3.9484 7.1620 5.0495 0
M  V30 515 H -2.5469 8.6132 5.5236 0
M  V30 516 C -7.4418 9.6440 3.0173 0
M  V30 517 C -7.4283 8.2818 2.7639 0
M  V30 518 C -6.9677 7.4176 3.7558 0
M  V30 519 H -7.7730 7.8931 1.8192 0
M  V30 520 N -6.5172 7.8688 4.9368 0
M  V30 521 C -6.9638 5.9867 3.5730 0
M  V30 522 C -6.5454 9.1690 5.1790 0
M  V30 523 C -7.0019 10.0966 4.2531 0
M  V30 524 H -6.1957 9.4856 6.1489 0
M  V30 525 H -7.0136 11.1458 4.5007 0
M  V30 526 H -7.7954 10.3441 2.2766 0
M  V30 527 N -6.4156 5.1793 4.4120 0
M  V30 528 H -7.4456 5.6148 2.6714 0
M  V30 529 Zn 6.3186 -5.9658 -6.3364 0 CHG=2
M  V30 530 C 8.0120 -4.9261 -10.7952 0
M  V30 531 C 8.0509 -4.0405 -9.7277 0
M  V30 532 C 7.4683 -4.4201 -8.5213 0
M  V30 533 H 8.5240 -3.0769 -9.8314 0
M  V30 534 N 6.8726 -5.6137 -8.3607 0
M  V30 535 C 7.4358 -3.5439 -7.3681 0
M  V30 536 C 6.8298 -6.4492 -9.3838 0
M  V30 537 C 7.3854 -6.1514 -10.6225 0
M  V30 538 H 6.3384 -7.3953 -9.2172 0
M  V30 539 H 7.3318 -6.8651 -11.4286 0
M  V30 540 H 8.4597 -4.6682 -11.7425 0
M  V30 541 N 6.7535 -3.8730 -6.3396 0
M  V30 542 H 7.9676 -2.5979 -7.4342 0
M  V30 543 C 10.9495 -6.2136 -4.7429 0
M  V30 544 C 9.8397 -6.1908 -3.9140 0
M  V30 545 C 8.5688 -6.1898 -4.4873 0
M  V30 546 H 9.9566 -6.1784 -2.8422 0
M  V30 547 N 8.3862 -6.1862 -5.8177 0
M  V30 548 C 7.3748 -6.2392 -3.6773 0
M  V30 549 C 9.4509 -6.2299 -6.6028 0
M  V30 550 C 10.7507 -6.2477 -6.1156 0
M  V30 551 H 9.2723 -6.2631 -7.6660 0
M  V30 552 H 11.5830 -6.2915 -6.7994 0
M  V30 553 H 11.9486 -6.2173 -4.3355 0
M  V30 554 N 6.2042 -6.1567 -4.1941 0
M  V30 555 H 7.5172 -6.3631 -2.6065 0
M  V30 556 C 5.3301 -10.6927 -7.0015 0
M  V30 557 C 4.3845 -9.6825 -7.0964 0
M  V30 558 C 4.7815 -8.3675 -6.8636 0
M  V30 559 H 3.3629 -9.9115 -7.3552 0
M  V30 560 N 6.0460 -8.0510 -6.5397 0
M  V30 561 C 3.8616 -7.2568 -6.9861 0
M  V30 562 C 6.9418 -9.0185 -6.4453 0
M  V30 563 C 6.6341 -10.3548 -6.6701 0
M  V30 564 H 7.9472 -8.7262 -6.1842 0
M  V30 565 H 7.3996 -11.1095 -6.5882 0
M  V30 566 H 5.0609 -11.7216 -7.1832 0
M  V30 567 N 4.2781 -6.0534 -6.8599 0
M  V30 568 H 2.8258 -7.4882 -7.2230 0
M  V30 569 Zn -6.0750 -6.1156 -5.6391 0 CHG=2
M  V30 570 C -8.8211 -9.2911 -3.2416 0
M  V30 571 C -8.7538 -7.9404 -2.9381 0
M  V30 572 C -7.9154 -7.1217 -3.6953 0
M  V30 573 H -9.3486 -7.5266 -2.1391 0
M  V30 574 N -7.1643 -7.6081 -4.6955 0
M  V30 575 C -7.8192 -5.7028 -3.4471 0
M  V30 576 C -7.2259 -8.8987 -4.9762 0
M  V30 577 C -8.0429 -9.7808 -4.2812 0
M  V30 578 H -6.6070 -9.2472 -5.7882 0
M  V30 579 H -8.0703 -10.8239 -4.5520 0
M  V30 580 H -9.4680 -9.9519 -2.6856 0
M  V30 581 N -7.0176 -4.9418 -4.1062 0
M  V30 582 H -8.4542 -5.3110 -2.6565 0
M  V30 583 C -9.5210 -4.3933 -8.6220 0
M  V30 584 C -8.1893 -4.0129 -8.6636 0
M  V30 585 C -7.3043 -4.5529 -7.7309 0
M  V30 586 H -7.8413 -3.3171 -9.4106 0
M  V30 587 N -7.7069 -5.4169 -6.7874 0
M  V30 588 C -5.9052 -4.2040 -7.7346 0
M  V30 589 C -8.9809 -5.7697 -6.7476 0
M  V30 590 C -9.9262 -5.2905 -7.6439 0
M  V30 591 H -9.2664 -6.4672 -5.9756 0
M  V30 592 H -10.9524 -5.6144 -7.5783 0
M  V30 593 H -10.2304 -4.0027 -9.3351 0
M  V30 594 N -5.0786 -4.6920 -6.8817 0
M  V30 595 H -5.5925 -3.4840 -8.4857 0
M  V30 596 C -4.3219 -8.6433 -9.4005 0
M  V30 597 C -3.6497 -8.4249 -8.2091 0
M  V30 598 C -4.3250 -7.8034 -7.1593 0
M  V30 599 H -2.6244 -8.7384 -8.0936 0
M  V30 600 N -5.5943 -7.3829 -7.2781 0
M  V30 601 C -3.7136 -7.6410 -5.8640 0
M  V30 602 C -6.2370 -7.6165 -8.4096 0
M  V30 603 C -5.6478 -8.2465 -9.4975 0
M  V30 604 H -7.2672 -7.3012 -8.4571 0
M  V30 605 H -6.2179 -8.4220 -10.3955 0
M  V30 606 H -3.8335 -9.1242 -10.2338 0
M  V30 607 N -4.3029 -7.0491 -4.8845 0
M  V30 608 H -2.7262 -8.0813 -5.7500 0
M  V30 END ATOM
M  V30 BEGIN BOND
M  V30 1 2 1 2
M  V30 2 1 2 3
M  V30 3 2 3 4
M  V30 4 1 4 5
M  V30 5 2 5 6
M  V30 6 1 6 7
M  V30 7 1 7 8
M  V30 8 2 8 9
M  V30 9 1 9 10
M  V30 10 2 10 11
M  V30 11 1 11 12
M  V30 12 2 12 13
M  V30 13 2 7 14
M  V30 14 1 14 15
M  V30 15 2 15 16
M  V30 16 1 16 17
M  V30 17 2 17 18
M  V30 18 1 18 19
M  V30 19 2 19 20
M  V30 20 1 14 21
M  V30 21 2 21 22
M  V30 22 1 22 23
M  V30 23 2 23 24
M  V30 24 1 24 25
M  V30 25 2 25 26
M  V30 26 1 26 27
M  V30 27 2 27 28
M  V30 28 1 4 29
M  V30 29 2 29 30
M  V30 30 1 30 1
M  V30 31 1 22 5
M  V30 32 1 28 23
M  V30 33 1 13 8
M  V30 34 1 20 15
M  V30 35 1 2 31
M  V30 36 1 3 32
M  V30 37 1 6 33
M  V30 38 1 9 34
M  V30 39 1 10 35
M  V30 40 1 12 36
M  V30 41 1 13 37
M  V30 42 1 16 38
M  V30 43 1 17 39
M  V30 44 1 19 40
M  V30 45 1 20 41
M  V30 46 1 21 42
M  V30 47 1 24 43
M  V30 48 1 25 44
M  V30 49 1 27 45
M  V30 50 1 28 46
M  V30 51 1 29 47
M  V30 52 1 30 48
M  V30 53 2 49 50
M  V30 54 1 50 51
M  V30 55 2 51 52
M  V30 56 1 52 53
M  V30 57 2 53 54
M  V30 58 1 54 55
M  V30 59 1 55 56
M  V30 60 2 56 57
M  V30 61 1 57 58
M  V30 62 2 58 59
M  V30 63 1 59 60
M  V30 64 2 60 61
M  V30 65 2 55 62
M  V30 66 1 62 63
M  V30 67 2 63 64
M  V30 68 1 64 65
M  V30 69 2 65 66
M  V30 70 1 66 67
M  V30 71 2 67 68
M  V30 72 1 62 69
M  V30 73 2 69 70
M  V30 74 1 70 71
M  V30 75 2 71 72
M  V30 76 1 72 73
M  V30 77 2 73 74
M  V30 78 1 74 75
M  V30 79 2 75 76
M  V30 80 1 52 77
M  V30 81 2 77 78
M  V30 82 1 78 49
M  V30 83 1 70 53
M  V30 84 1 76 71
M  V30 85 1 61 56
M  V30 86 1 68 63
M  V30 87 1 50 79
M  V30 88 1 51 80
M  V30 89 1 54 81
M  V30 90 1 57 82
M  V30 91 1 58 83
M  V30 92 1 60 84
M  V30 93 1 61 85
M  V30 94 1 64 86
M  V30 95 1 65 87
M  V30 96 1 67 88
M  V30 97 1 68 89
M  V30 98 1 69 90
M  V30 99 1 72 91
M  V30 100 1 73 92
M  V30 101 1 75 93
M  V30 102 1 76 94
M  V30 103 1 77 95
M  V30 104 1 78 96
M  V30 105 2 97 98
M  V30 106 1 98 99
M  V30 107 2 99 100
M  V30 108 1 100 101
M  V30 109 2 101 102
M  V30 110 1 102 103
M  V30 111 1 103 104
M  V30 112 2 104 105
M  V30 113 1 105 106
M  V30 114 2 106 107
M  V30 115 1 107 108
M  V30 116 2 108 109
M  V30 117 2 103 110
M  V30 118 1 110 111
M  V30 119 2 111 112
M  V30 120 1 112 113
M  V30 121 2 113 114
M  V30 122 1 114 115
M  V30 123 2 115 116
M  V30 124 1 110 117
M  V30 125 2 117 118
M  V30 126 1 118 119
M  V30 127 2 119 120
M  V30 128 1 120 121
M  V30 129 2 121 122
M  V30 130 1 122 123
M  V30 131 2 123 124
M  V30 132 1 100 125
M  V30 133 2 125 126
M  V30 134 1 126 97
M  V30 135 1 118 101
M  V30 136 1 124 119
M  V30 137 1 109 104
M  V30 138 1 116 111
M  V30 139 1 98 127
M  V30 140 1 99 128
M  V30 141 1 102 129
M  V30 142 1 105 130
M  V30 143 1 106 131
M  V30 144 1 108 132
M  V30 145 1 109 133
M  V30 146 1 112 134
M  V30 147 1 113 135
M  V30 148 1 115 136
M  V30 149 1 116 137
M  V30 150 1 117 138
M  V30 151 1 120 139
M  V30 152 1 121 140
M  V30 153 1 123 141
M  V30 154 1 124 142
M  V30 155 1 125 143
M  V30 156 1 126 144
M  V30 157 2 145 146
M  V30 158 1 146 147
M  V30 159 2 147 148
M  V30 160 1 148 149
M  V30 161 2 149 150
M  V30 162 1 150 151
M  V30 163 1 151 152
M  V30 164 2 152 153
M  V30 165 1 153 154
M  V30 166 2 154 155
M  V30 167 1 155 156
M  V30 168 2 156 157
M  V30 169 2 151 158
M  V30 170 1 158 159
M  V30 171 2 159 160
M  V30 172 1 160 161
M  V30 173 2 161 162
M  V30 174 1 162 163
M  V30 175 2 163 164
M  V30 176 1 158 165
M  V30 177 2 165 166
M  V30 178 1 166 167
M  V30 179 2 167 168
M  V30 180 1 168 169
M  V30 181 2 169 170
M  V30 182 1 170 171
M  V30 183 2 171 172
M  V30 184 1 148 173
M  V30 185 2 173 174
M  V30 186 1 174 145
M  V30 187 1 166 149
M  V30 188 1 172 167
M  V30 189 1 157 152
M  V30 190 1 164 159
M  V30 191 1 146 175
M  V30 192 1 147 176
M  V30 193 1 150 177
M  V30 194 1 153 178
M  V30 195 1 154 179
M  V30 196 1 156 180
M  V30 197 1 157 181
M  V30 198 1 160 182
M  V30 199 1 161 183
M  V30 200 1 163 184
M  V30 201 1 164 185
M  V30 202 1 165 186
M  V30 203 1 168 187
M  V30 204 1 169 188
M  V30 205 1 171 189
M  V30 206 1 172 190
M  V30 207 1 173 191
M  V30 208 1 174 192
M  V30 209 2 193 194
M  V30 210 1 194 195
M  V30 211 2 195 196
M  V30 212 1 196 197
M  V30 213 2 197 198
M  V30 214 1 198 199
M  V30 215 1 199 200
M  V30 216 2 200 201
M  V30 217 1 201 202
M  V30 218 2 202 203
M  V30 219 1 203 204
M  V30 220 2 204 205
M  V30 221 2 199 206
M  V30 222 1 206 207
M  V30 223 2 207 208
M  V30 224 1 208 209
M  V30 225 2 209 210
M  V30 226 1 210 211
M  V30 227 2 211 212
M  V30 228 1 206 213
M  V30 229 2 213 214
M  V30 230 1 214 215
M  V30 231 2 215 216
M  V30 232 1 216 217
M  V30 233 2 217 218
M  V30 234 1 218 219
M  V30 235 2 219 220
M  V30 236 1 196 221
M  V30 237 2 221 222
M  V30 238 1 222 193
M  V30 239 1 214 197
M  V30 240 1 220 215
M  V30 241 1 205 200
M  V30 242 1 212 207
M  V30 243 1 194 223
M  V30 244 1 195 224
M  V30 245 1 198 225
M  V30 246 1 201 226
M  V30 247 1 202 227
M  V30 248 1 204 228
M  V30 249 1 205 229
M  V30 250 1 208 230
M  V30 251 1 209 231
M  V30 252 1 211 232
M  V30 253 1 212 233
M  V30 254 1 213 234
M  V30 255 1 216 235
M  V30 256 1 217 236
M  V30 257 1 219 237
M  V30 258 1 220 238
M  V30 259 1 221 239
M  V30 260 1 222 240
M  V30 261 2 241 242
M  V30 262 1 242 243
M  V30 263 2 243 244
M  V30 264 1 244 245
M  V30 265 2 245 246
M  V30 266 1 246 247
M  V30 267 1 247 248
M  V30 268 2 248 249
M  V30 269 1 249 250
M  V30 270 2 250 251
M  V30 271 1 251 252
M  V30 272 2 252 253
M  V30 273 2 247 254
M  V30 274 1 254 255
M  V30 275 2 255 256
M  V30 276 1 256 257
M  V30 277 2 257 258
M  V30 278 1 258 259
M  V30 279 2 259 260
M  V30 280 1 254 261
M  V30 281 2 261 262
M  V30 282 1 262 263
M  V30 283 2 263 264
M  V30 284 1 264 265
M  V30 285 2 265 266
M  V30 286 1 266 267
M  V30 287 2 267 268
M  V30 288 1 244 269
M  V30 289 2 269 270
M  V30 290 1 270 241
M  V30 291 1 262 245
M  V30 292 1 268 263
M  V30 293 1 253 248
M  V30 294 1 260 255
M  V30 295 1 242 271
M  V30 296 1 243 272
M  V30 297 1 246 273
M  V30 298 1 249 274
M  V30 299 1 250 275
M  V30 300 1 252 276
M  V30 301 1 253 277
M  V30 302 1 256 278
M  V30 303 1 257 279
M  V30 304 1 259 280
M  V30 305 1 260 281
M  V30 306 1 261 282
M  V30 307 1 264 283
M  V30 308 1 265 284
M  V30 309 1 267 285
M  V30 310 1 268 286
M  V30 311 1 269 287
M  V30 312 1 270 288
M  V30 313 1 290 300
M  V30 314 2 290 297
M  V30 315 1 291 290
M  V30 316 2 292 291
M  V30 317 1 292 294
M  V30 318 1 293 291
M  V30 319 2 294 296
M  V30 320 1 295 292
M  V30 321 1 296 297
M  V30 322 1 296 298
M  V30 323 1 297 299
M  V30 324 2 301 295
M  V30 325 1 302 295
M  V30 326 1 303 313
M  V30 327 2 303 310
M  V30 328 1 304 303
M  V30 329 2 305 304
M  V30 330 1 305 307
M  V30 331 1 306 304
M  V30 332 2 307 309
M  V30 333 1 308 305
M  V30 334 1 309 310
M  V30 335 1 309 311
M  V30 336 1 310 312
M  V30 337 2 314 308
M  V30 338 1 315 308
M  V30 339 1 316 326
M  V30 340 2 316 323
M  V30 341 1 317 316
M  V30 342 2 318 317
M  V30 343 1 318 320
M  V30 344 1 319 317
M  V30 345 2 320 322
M  V30 346 1 321 318
M  V30 347 1 322 323
M  V30 348 1 322 324
M  V30 349 1 323 325
M  V30 350 2 327 321
M  V30 351 1 328 321
M  V30 352 9 301 289
M  V30 353 9 294 289
M  V30 354 9 314 289
M  V30 355 9 307 289
M  V30 356 9 327 289
M  V30 357 9 320 289
M  V30 358 1 330 340
M  V30 359 2 330 337
M  V30 360 1 331 330
M  V30 361 2 332 331
M  V30 362 1 332 334
M  V30 363 1 333 331
M  V30 364 2 334 336
M  V30 365 1 335 332
M  V30 366 1 336 337
M  V30 367 1 336 338
M  V30 368 1 337 339
M  V30 369 2 341 335
M  V30 370 1 342 335
M  V30 371 1 343 353
M  V30 372 2 343 350
M  V30 373 1 344 343
M  V30 374 2 345 344
M  V30 375 1 345 347
M  V30 376 1 346 344
M  V30 377 2 347 349
M  V30 378 1 348 345
M  V30 379 1 349 350
M  V30 380 1 349 351
M  V30 381 1 350 352
M  V30 382 2 354 348
M  V30 383 1 355 348
M  V30 384 1 356 366
M  V30 385 2 356 363
M  V30 386 1 357 356
M  V30 387 2 358 357
M  V30 388 1 358 360
M  V30 389 1 359 357
M  V30 390 2 360 362
M  V30 391 1 361 358
M  V30 392 1 362 363
M  V30 393 1 362 364
M  V30 394 1 363 365
M  V30 395 2 367 361
M  V30 396 1 368 361
M  V30 397 9 341 329
M  V30 398 9 334 329
M  V30 399 9 354 329
M  V30 400 9 347 329
M  V30 401 9 367 329
M  V30 402 9 360 329
M  V30 403 1 370 380
M  V30 404 2 370 377
M  V30 405 1 371 370
M  V30 406 2 372 371
M  V30 407 1 372 374
M  V30 408 1 373 371
M  V30 409 2 374 376
M  V30 410 1 375 372
M  V30 411 1 376 377
M  V30 412 1 376 378
M  V30 413 1 377 379
M  V30 414 2 381 375
M  V30 415 1 382 375
M  V30 416 1 383 393
M  V30 417 2 383 390
M  V30 418 1 384 383
M  V30 419 2 385 384
M  V30 420 1 385 387
M  V30 421 1 386 384
M  V30 422 2 387 389
M  V30 423 1 388 385
M  V30 424 1 389 390
M  V30 425 1 389 391
M  V30 426 1 390 392
M  V30 427 2 394 388
M  V30 428 1 395 388
M  V30 429 1 396 406
M  V30 430 2 396 403
M  V30 431 1 397 396
M  V30 432 2 398 397
M  V30 433 1 398 400
M  V30 434 1 399 397
M  V30 435 2 400 402
M  V30 436 1 401 398
M  V30 437 1 402 403
M  V30 438 1 402 404
M  V30 439 1 403 405
M  V30 440 2 407 401
M  V30 441 1 408 401
M  V30 442 9 381 369
M  V30 443 9 374 369
M  V30 444 9 394 369
M  V30 445 9 387 369
M  V30 446 9 407 369
M  V30 447 9 400 369
M  V30 448 1 410 420
M  V30 449 2 410 417
M  V30 450 1 411 410
M  V30 451 2 412 411
M  V30 452 1 412 414
M  V30 453 1 413 411
M  V30 454 2 414 416
M  V30 455 1 415 412
M  V30 456 1 416 417
M  V30 457 1 416 418
M  V30 458 1 417 419
M  V30 459 2 421 415
M  V30 460 1 422 415
M  V30 461 1 423 433
M  V30 462 2 423 430
M  V30 463 1 424 423
M  V30 464 2 425 424
M  V30 465 1 425 427
M  V30 466 1 426 424
M  V30 467 2 427 429
M  V30 468 1 428 425
M  V30 469 1 429 430
M  V30 470 1 429 431
M  V30 471 1 430 432
M  V30 472 2 434 428
M  V30 473 1 435 428
M  V30 474 1 436 446
M  V30 475 2 436 443
M  V30 476 1 437 436
M  V30 477 2 438 437
M  V30 478 1 438 440
M  V30 479 1 439 437
M  V30 480 2 440 442
M  V30 481 1 441 438
M  V30 482 1 442 443
M  V30 483 1 442 444
M  V30 484 1 443 445
M  V30 485 2 447 441
M  V30 486 1 448 441
M  V30 487 9 421 409
M  V30 488 9 414 409
M  V30 489 9 434 409
M  V30 490 9 427 409
M  V30 491 9 447 409
M  V30 492 9 440 409
M  V30 493 1 450 460
M  V30 494 2 450 457
M  V30 495 1 451 450
M  V30 496 2 452 451
M  V30 497 1 452 454
M  V30 498 1 453 451
M  V30 499 2 454 456
M  V30 500 1 455 452
M  V30 501 1 456 457
M  V30 502 1 456 458
M  V30 503 1 457 459
M  V30 504 2 461 455
M  V30 505 1 462 455
M  V30 506 1 463 473
M  V30 507 2 463 470
M  V30 508 1 464 463
M  V30 509 2 465 464
M  V30 510 1 465 467
M  V30 511 1 466 464
M  V30 512 2 467 469
M  V30 513 1 468 465
M  V30 514 1 469 470
M  V30 515 1 469 471
M  V30 516 1 470 472
M  V30 517 2 474 468
M  V30 518 1 475 468
M  V30 519 1 476 486
M  V30 520 2 476 483
M  V30 521 1 477 476
M  V30 522 2 478 477
M  V30 523 1 478 480
M  V30 524 1 479 477
M  V30 525 2 480 482
M  V30 526 1 481 478
M  V30 527 1 482 483
M  V30 528 1 482 484
M  V30 529 1 483 485
M  V30 530 2 487 481
M  V30 531 1 488 481
M  V30 532 9 461 449
M  V30 533 9 454 449
M  V30 534 9 487 449
M  V30 535 9 480 449
M  V30 536 9 474 449
M  V30 537 9 467 449
M  V30 538 1 490 500
M  V30 539 2 490 497
M  V30 540 1 491 490
M  V30 541 2 492 491
M  V30 542 1 492 494
M  V30 543 1 493 491
M  V30 544 2 494 496
M  V30 545 1 495 492
M  V30 546 1 496 497
M  V30 547 1 496 498
M  V30 548 1 497 499
M  V30 549 2 501 495
M  V30 550 1 502 495
M  V30 551 1 503 513
M  V30 552 2 503 510
M  V30 553 1 504 503
M  V30 554 2 505 504
M  V30 555 1 505 507
M  V30 556 1 506 504
M  V30 557 2 507 509
M  V30 558 1 508 505
M  V30 559 1 509 510
M  V30 560 1 509 511
M  V30 561 1 510 512
M  V30 562 2 514 508
M  V30 563 1 515 508
M  V30 564 1 516 526
M  V30 565 2 516 523
M  V30 566 1 517 516
M  V30 567 2 518 517
M  V30 568 1 518 520
M  V30 569 1 519 517
M  V30 570 2 520 522
M  V30 571 1 521 518
M  V30 572 1 522 523
M  V30 573 1 522 524
M  V30 574 1 523 525
M  V30 575 2 527 521
M  V30 576 1 528 521
M  V30 577 9 501 489
M  V30 578 9 494 489
M  V30 579 9 527 489
M  V30 580 9 520 489
M  V30 581 9 514 489
M  V30 582 9 507 489
M  V30 583 1 530 540
M  V30 584 2 530 537
M  V30 585 1 531 530
M  V30 586 2 532 531
M  V30 587 1 532 534
M  V30 588 1 533 531
M  V30 589 2 534 536
M  V30 590 1 535 532
M  V30 591 1 536 537
M  V30 592 1 536 538
M  V30 593 1 537 539
M  V30 594 2 541 535
M  V30 595 1 542 535
M  V30 596 1 543 553
M  V30 597 2 543 550
M  V30 598 1 544 543
M  V30 599 2 545 544
M  V30 600 1 545 547
M  V30 601 1 546 544
M  V30 602 2 547 549
M  V30 603 1 548 545
M  V30 604 1 549 550
M  V30 605 1 549 551
M  V30 606 1 550 552
M  V30 607 2 554 548
M  V30 608 1 555 548
M  V30 609 1 556 566
M  V30 610 2 556 563
M  V30 611 1 557 556
M  V30 612 2 558 557
M  V30 613 1 558 560
M  V30 614 1 559 557
M  V30 615 2 560 562
M  V30 616 1 561 558
M  V30 617 1 562 563
M  V30 618 1 562 564
M  V30 619 1 563 565
M  V30 620 2 567 561
M  V30 621 1 568 561
M  V30 622 9 541 529
M  V30 623 9 534 529
M  V30 624 9 567 529
M  V30 625 9 560 529
M  V30 626 9 554 529
M  V30 627 9 547 529
M  V30 628 1 570 580
M  V30 629 2 570 577
M  V30 630 1 571 570
M  V30 631 2 572 571
M  V30 632 1 572 574
M  V30 633 1 573 571
M  V30 634 2 574 576
M  V30 635 1 575 572
M  V30 636 1 576 577
M  V30 637 1 576 578
M  V30 638 1 577 579
M  V30 639 2 581 575
M  V30 640 1 582 575
M  V30 641 1 583 593
M  V30 642 2 583 590
M  V30 643 1 584 583
M  V30 644 2 585 584
M  V30 645 1 585 587
M  V30 646 1 586 584
M  V30 647 2 587 589
M  V30 648 1 588 585
M  V30 649 1 589 590
M  V30 650 1 589 591
M  V30 651 1 590 592
M  V30 652 2 594 588
M  V30 653 1 595 588
M  V30 654 1 596 606
M  V30 655 2 596 603
M  V30 656 1 597 596
M  V30 657 2 598 597
M  V30 658 1 598 600
M  V30 659 1 599 597
M  V30 660 2 600 602
M  V30 661 1 601 598
M  V30 662 1 602 603
M  V30 663 1 602 604
M  V30 664 1 603 605
M  V30 665 2 607 601
M  V30 666 1 608 601
M  V30 667 9 581 569
M  V30 668 9 574 569
M  V30 669 9 607 569
M  V30 670 9 600 569
M  V30 671 9 594 569
M  V30 672 9 587 569
M  V30 673 1 18 461
M  V30 674 1 26 301
M  V30 675 1 1 341
M  V30 676 1 11 501
M  V30 677 1 59 381
M  V30 678 1 66 541
M  V30 679 1 74 314
M  V30 680 1 49 474
M  V30 681 1 107 394
M  V30 682 1 114 487
M  V30 683 1 122 514
M  V30 684 1 97 421
M  V30 685 1 155 527
M  V30 686 1 162 367
M  V30 687 1 170 581
M  V30 688 1 145 434
M  V30 689 1 210 567
M  V30 690 1 218 407
M  V30 691 1 193 447
M  V30 692 1 203 594
M  V30 693 1 251 327
M  V30 694 1 258 554
M  V30 695 1 266 607
M  V30 696 1 241 354
M  V30 END BOND
M  V30 END CTAB
M  END

$$$$
