
     RDKit          3D

  0  0  0  0  0  0  0  0  0  0999 V3000
M  V30 BEGIN CTAB
M  V30 COUNTS 632 720 0 0 0
M  V30 BEGIN ATOM
M  V30 1 C -2.0490 5.1179 6.2383 0
M  V30 2 C -2.0502 3.8380 5.6772 0
M  V30 3 C -1.1338 2.8947 6.0834 0
M  V30 4 C -0.2027 3.1945 7.0866 0
M  V30 5 N 0.7084 2.2569 7.5624 0
M  V30 6 C 2.0019 2.7558 7.8323 0
M  V30 7 C 2.5282 2.8119 9.1217 0
M  V30 8 C 3.7511 3.4139 9.3390 0
M  V30 9 C 4.4864 3.9304 8.2651 0
M  V30 10 C 3.9712 3.8264 6.9682 0
M  V30 11 C 2.7370 3.2576 6.7558 0
M  V30 12 C 0.4211 0.9034 7.6952 0
M  V30 13 C 1.4562 -0.0350 7.7452 0
M  V30 14 C 1.1786 -1.3833 7.7565 0
M  V30 15 C -0.1405 -1.8422 7.6685 0
M  V30 16 N -0.4333 -3.1963 7.5337 0
M  V30 17 C 0.5364 -4.1496 7.2409 0
M  V30 18 C 1.5117 -3.9155 6.2597 0
M  V30 19 C 2.5258 -4.8215 6.0723 0
M  V30 20 C 2.6126 -5.9816 6.8529 0
M  V30 21 C 1.5872 -6.2574 7.7680 0
M  V30 22 C 0.5577 -5.3613 7.9451 0
M  V30 23 C -1.7722 -3.6365 7.6962 0
M  V30 24 C -2.4831 -4.0099 6.5539 0
M  V30 25 C -3.8109 -4.3682 6.6521 0
M  V30 26 C -4.4398 -4.3871 7.9001 0
M  V30 27 C -3.7130 -4.0506 9.0479 0
M  V30 28 C -2.3927 -3.6606 8.9431 0
M  V30 29 C -1.1762 -0.9018 7.7124 0
M  V30 30 C -0.8979 0.4453 7.7516 0
M  V30 31 C -0.1718 4.4926 7.6136 0
M  V30 32 C -1.0725 5.4397 7.1887 0
M  V30 33 H -2.7449 3.5998 4.8912 0
M  V30 34 H -1.1151 1.9264 5.6096 0
M  V30 35 H 1.9629 2.4232 9.9543 0
M  V30 36 H 4.1084 3.5320 10.3499 0
M  V30 37 H 4.5714 4.1637 6.1370 0
M  V30 38 H 2.3403 3.1710 5.7564 0
M  V30 39 H 2.4813 0.2959 7.7681 0
M  V30 40 H 1.9914 -2.0863 7.8264 0
M  V30 41 H 1.4521 -3.0270 5.6510 0
M  V30 42 H 3.2699 -4.6874 5.3046 0
M  V30 43 H 1.6366 -7.1329 8.3963 0
M  V30 44 H -0.2053 -5.5660 8.6800 0
M  V30 45 H -1.9962 -3.9820 5.5924 0
M  V30 46 H -4.3963 -4.5919 5.7730 0
M  V30 47 H -4.1689 -4.1341 10.0224 0
M  V30 48 H -1.8396 -3.3865 9.8283 0
M  V30 49 H -2.2016 -1.2304 7.7216 0
M  V30 50 H -1.7038 1.1557 7.8265 0
M  V30 51 H 0.5338 4.7384 8.3908 0
M  V30 52 H -1.0914 6.4123 7.6542 0
M  V30 53 C 6.0405 3.0356 -4.7737 0
M  V30 54 C 5.4277 1.8083 -5.0735 0
M  V30 55 C 5.5487 0.7400 -4.2183 0
M  V30 56 C 6.2677 0.8516 -3.0192 0
M  V30 57 N 6.3640 -0.2411 -2.1732 0
M  V30 58 C 6.6045 -1.5202 -2.7223 0
M  V30 59 C 7.6635 -1.7146 -3.6090 0
M  V30 60 C 7.9557 -2.9847 -4.0687 0
M  V30 61 C 7.1408 -4.0573 -3.7123 0
M  V30 62 C 6.0424 -3.8535 -2.8773 0
M  V30 63 C 5.7993 -2.5992 -2.3529 0
M  V30 64 C 6.4537 -0.0838 -0.7829 0
M  V30 65 C 7.2802 -0.9193 -0.0301 0
M  V30 66 C 7.3736 -0.7523 1.3358 0
M  V30 67 C 6.6427 0.2503 1.9693 0
M  V30 68 N 6.7570 0.4131 3.3738 0
M  V30 69 C 6.5603 -0.7249 4.1616 0
M  V30 70 C 5.5778 -1.6525 3.7944 0
M  V30 71 C 5.2912 -2.7287 4.6051 0
M  V30 72 C 5.9511 -2.8915 5.8249 0
M  V30 73 C 6.9920 -2.0128 6.1503 0
M  V30 74 C 7.3109 -0.9628 5.3187 0
M  V30 75 C 7.0134 1.6530 3.9159 0
M  V30 76 C 6.7270 1.9288 5.2633 0
M  V30 77 C 6.9392 3.1805 5.7808 0
M  V30 78 C 7.4120 4.2361 4.9900 0
M  V30 79 C 7.7089 3.9598 3.6442 0
M  V30 80 C 7.5141 2.7026 3.1242 0
M  V30 81 C 5.7855 1.0610 1.2252 0
M  V30 82 C 5.6901 0.8947 -0.1405 0
M  V30 83 C 6.8467 2.0860 -2.6987 0
M  V30 84 C 6.7402 3.1473 -3.5647 0
M  V30 85 H 4.8145 1.7100 -5.9538 0
M  V30 86 H 5.0640 -0.1911 -4.4583 0
M  V30 87 H 8.2832 -0.8826 -3.9041 0
M  V30 88 H 8.8005 -3.1500 -4.7189 0
M  V30 89 H 5.4186 -4.6956 -2.6319 0
M  V30 90 H 4.9784 -2.4408 -1.6717 0
M  V30 91 H 7.8732 -1.6751 -0.5183 0
M  V30 92 H 8.0367 -1.3756 1.9135 0
M  V30 93 H 5.0118 -1.5013 2.8890 0
M  V30 94 H 4.5096 -3.4115 4.3235 0
M  V30 95 H 7.5789 -2.1927 7.0379 0
M  V30 96 H 8.1424 -0.3222 5.5675 0
M  V30 97 H 6.3190 1.1649 5.9031 0
M  V30 98 H 6.7628 3.3642 6.8262 0
M  V30 99 H 8.0566 4.7447 2.9927 0
M  V30 100 H 7.7633 2.5215 2.0913 0
M  V30 101 H 5.1870 1.8025 1.7282 0
M  V30 102 H 5.0175 1.5109 -0.7143 0
M  V30 103 H 7.4211 2.1860 -1.7921 0
M  V30 104 H 7.2561 4.0662 -3.3526 0
M  V30 105 C 5.5212 6.3499 -2.0229 0
M  V30 106 C 5.7577 5.6022 -0.8626 0
M  V30 107 C 4.8437 5.6055 0.1666 0
M  V30 108 C 3.6868 6.3914 0.0870 0
M  V30 109 N 2.7864 6.4341 1.1520 0
M  V30 110 C 3.2367 6.4792 2.4668 0
M  V30 111 C 4.5003 6.9966 2.7859 0
M  V30 112 C 4.9294 7.0493 4.0917 0
M  V30 113 C 4.0977 6.6297 5.1345 0
M  V30 114 C 2.8353 6.1075 4.8188 0
M  V30 115 C 2.4237 6.0088 3.5097 0
M  V30 116 C 1.4159 6.6166 0.8712 0
M  V30 117 C 0.6488 7.5061 1.6249 0
M  V30 118 C -0.6915 7.6702 1.3459 0
M  V30 119 C -1.2793 6.9703 0.2935 0
M  V30 120 N -2.6671 7.1299 0.0626 0
M  V30 121 C -3.4981 6.9639 1.1781 0
M  V30 122 C -3.2997 5.8546 2.0072 0
M  V30 123 C -4.1249 5.6560 3.0879 0
M  V30 124 C -5.1524 6.5600 3.3735 0
M  V30 125 C -5.3339 7.6828 2.5601 0
M  V30 126 C -4.5132 7.8800 1.4721 0
M  V30 127 C -3.1854 7.4292 -1.1743 0
M  V30 128 C -4.5338 7.1502 -1.4555 0
M  V30 129 C -5.0452 7.3759 -2.7074 0
M  V30 130 C -4.2455 7.8993 -3.7296 0
M  V30 131 C -2.9059 8.2054 -3.4431 0
M  V30 132 C -2.3821 7.9576 -2.1965 0
M  V30 133 C -0.5155 6.0873 -0.4682 0
M  V30 134 C 0.8211 5.9051 -0.1738 0
M  V30 135 C 3.4393 7.1141 -1.0864 0
M  V30 136 C 4.3354 7.0810 -2.1297 0
M  V30 137 H 6.6375 4.9821 -0.8017 0
M  V30 138 H 5.0182 5.0025 1.0427 0
M  V30 139 H 5.1327 7.3962 2.0096 0
M  V30 140 H 5.8833 7.4881 4.3306 0
M  V30 141 H 2.2051 5.7290 5.6072 0
M  V30 142 H 1.4671 5.5642 3.2850 0
M  V30 143 H 1.1074 8.0837 2.4110 0
M  V30 144 H -1.2845 8.3628 1.9208 0
M  V30 145 H -2.5186 5.1480 1.7764 0
M  V30 146 H -4.0401 4.7773 3.7059 0
M  V30 147 H -6.0780 8.4224 2.8110 0
M  V30 148 H -4.6427 8.7561 0.8555 0
M  V30 149 H -5.1725 6.7328 -0.6950 0
M  V30 150 H -6.0818 7.1748 -2.9154 0
M  V30 151 H -2.2638 8.5890 -4.2199 0
M  V30 152 H -1.3468 8.1866 -2.0023 0
M  V30 153 H -0.9790 5.5355 -1.2697 0
M  V30 154 H 1.4078 5.2032 -0.7436 0
M  V30 155 H 2.5606 7.7333 -1.1627 0
M  V30 156 H 4.1666 7.6790 -3.0079 0
M  V30 157 C -5.1611 2.7436 5.8432 0
M  V30 158 C -4.5934 1.4700 6.0129 0
M  V30 159 C -4.8748 0.4552 5.1297 0
M  V30 160 C -5.7289 0.6763 4.0397 0
M  V30 161 N -6.0595 -0.3691 3.1768 0
M  V30 162 C -6.4128 -1.6122 3.6769 0
M  V30 163 C -6.8465 -1.7579 5.0043 0
M  V30 164 C -7.1616 -2.9956 5.5129 0
M  V30 165 C -7.1207 -4.1285 4.6963 0
M  V30 166 C -6.7238 -3.9847 3.3616 0
M  V30 167 C -6.3384 -2.7579 2.8719 0
M  V30 168 C -6.1142 -0.0979 1.7884 0
M  V30 169 C -7.2063 -0.4919 1.0163 0
M  V30 170 C -7.2052 -0.2641 -0.3469 0
M  V30 171 C -6.1111 0.3477 -0.9557 0
M  V30 172 N -6.0883 0.5163 -2.3768 0
M  V30 173 C -6.1107 -0.5597 -3.2168 0
M  V30 174 C -5.9916 -1.8760 -2.7325 0
M  V30 175 C -5.9679 -2.9369 -3.5997 0
M  V30 176 C -6.0406 -2.7612 -4.9902 0
M  V30 177 C -6.1115 -1.4406 -5.4749 0
M  V30 178 C -6.1399 -0.3756 -4.6138 0
M  V30 179 C -6.3933 1.8176 -2.8694 0
M  V30 180 C -5.4244 2.8181 -2.8762 0
M  V30 181 C -5.7215 4.0663 -3.3893 0
M  V30 182 C -7.0068 4.3421 -3.8582 0
M  V30 183 C -7.9796 3.3409 -3.8473 0
M  V30 184 C -7.6673 2.0837 -3.3698 0
M  V30 185 C -5.0381 0.7741 -0.1814 0
M  V30 186 C -5.0418 0.5574 1.1844 0
M  V30 187 C -6.2279 1.9647 3.8189 0
M  V30 188 C -5.9547 2.9753 4.7128 0
M  V30 189 H -3.8935 1.2906 6.8113 0
M  V30 190 H -4.4259 -0.5165 5.2622 0
M  V30 191 H -6.9674 -0.8915 5.6340 0
M  V30 192 H -7.5178 -3.0928 6.5244 0
M  V30 193 H -6.6582 -4.8600 2.7367 0
M  V30 194 H -5.9758 -2.6833 1.8598 0
M  V30 195 H -8.0552 -0.9679 1.4815 0
M  V30 196 H -8.0527 -0.5684 -0.9410 0
M  V30 197 H -5.9261 -2.0570 -1.6731 0
M  V30 198 H -5.9160 -3.9459 -3.2220 0
M  V30 199 H -6.1097 -1.2422 -6.5341 0
M  V30 200 H -6.1815 0.6231 -5.0169 0
M  V30 201 H -4.4333 2.6198 -2.5047 0
M  V30 202 H -4.9820 4.8518 -3.4097 0
M  V30 203 H -8.9613 3.5363 -4.2512 0
M  V30 204 H -8.4173 1.3079 -3.3849 0
M  V30 205 H -4.1872 1.2426 -0.6449 0
M  V30 206 H -4.2008 0.8662 1.7840 0
M  V30 207 H -6.8633 2.1555 2.9693 0
M  V30 208 H -6.3942 3.9495 4.5762 0
M  V30 209 C -2.5332 -5.2750 -4.8817 0
M  V30 210 C -1.3416 -5.4804 -4.1665 0
M  V30 211 C -0.3195 -4.5652 -4.2462 0
M  V30 212 C -0.4520 -3.4089 -5.0269 0
M  V30 213 N 0.6355 -2.5447 -5.1549 0
M  V30 214 C 1.8955 -3.0639 -5.4301 0
M  V30 215 C 2.0412 -4.2657 -6.1354 0
M  V30 216 C 3.2924 -4.7553 -6.4343 0
M  V30 217 C 4.4341 -4.0395 -6.0692 0
M  V30 218 C 4.2913 -2.8371 -5.3699 0
M  V30 219 C 3.0443 -2.3712 -5.0252 0
M  V30 220 C 0.4307 -1.1524 -5.1906 0
M  V30 221 C 1.1271 -0.3584 -6.1037 0
M  V30 222 C 0.9173 1.0036 -6.1369 0
M  V30 223 C -0.0004 1.5879 -5.2666 0
M  V30 224 N -0.2621 2.9792 -5.3685 0
M  V30 225 C 0.8426 3.8397 -5.4258 0
M  V30 226 C 1.8914 3.6888 -4.5094 0
M  V30 227 C 2.9572 4.5644 -4.5207 0
M  V30 228 C 2.9985 5.6140 -5.4451 0
M  V30 229 C 1.9902 5.7128 -6.4135 0
M  V30 230 C 0.9292 4.8376 -6.4037 0
M  V30 231 C -1.5421 3.4190 -5.6238 0
M  V30 232 C -1.8921 4.7675 -5.4366 0
M  V30 233 C -3.1597 5.2062 -5.7255 0
M  V30 234 C -4.1515 4.3359 -6.2006 0
M  V30 235 C -3.8170 2.9749 -6.3202 0
M  V30 236 C -2.5506 2.5294 -6.0361 0
M  V30 237 C -0.6786 0.8020 -4.3360 0
M  V30 238 C -0.4639 -0.5612 -4.2967 0
M  V30 239 C -1.6735 -3.1516 -5.6566 0
M  V30 240 C -2.6901 -4.0778 -5.5898 0
M  V30 241 H -1.2416 -6.3346 -3.5175 0
M  V30 242 H 0.5974 -4.7209 -3.7011 0
M  V30 243 H 1.1691 -4.7939 -6.4867 0
M  V30 244 H 3.4012 -5.6496 -7.0252 0
M  V30 245 H 5.1836 -2.3171 -5.0642 0
M  V30 246 H 2.9408 -1.4691 -4.4432 0
M  V30 247 H 1.8024 -0.8128 -6.8103 0
M  V30 248 H 1.4294 1.6130 -6.8637 0
M  V30 249 H 1.8476 2.9002 -3.7749 0
M  V30 250 H 3.7466 4.4951 -3.7871 0
M  V30 251 H 2.0686 6.4450 -7.2023 0
M  V30 252 H 0.1705 4.9130 -7.1672 0
M  V30 253 H -1.1613 5.4686 -5.0684 0
M  V30 254 H -3.4060 6.2482 -5.6176 0
M  V30 255 H -4.5543 2.2510 -6.6228 0
M  V30 256 H -2.3297 1.4829 -6.1658 0
M  V30 257 H -1.3659 1.2649 -3.6478 0
M  V30 258 H -0.9819 -1.1721 -3.5756 0
M  V30 259 H -1.8015 -2.2536 -6.2386 0
M  V30 260 H -3.6021 -3.9175 -6.1382 0
M  V30 261 C 5.5207 -5.8942 3.3843 0
M  V30 262 C 5.7361 -5.1816 2.1955 0
M  V30 263 C 4.8955 -5.3548 1.1193 0
M  V30 264 C 3.8151 -6.2427 1.1996 0
M  V30 265 N 2.9487 -6.4239 0.1197 0
M  V30 266 C 3.4251 -6.6287 -1.1628 0
M  V30 267 C 4.7448 -7.0474 -1.3899 0
M  V30 268 C 5.2115 -7.2220 -2.6725 0
M  V30 269 C 4.3603 -7.0436 -3.7678 0
M  V30 270 C 3.0355 -6.6511 -3.5464 0
M  V30 271 C 2.5885 -6.4115 -2.2679 0
M  V30 272 C 1.5721 -6.5527 0.4125 0
M  V30 273 C 0.8100 -7.5757 -0.1498 0
M  V30 274 C -0.5356 -7.6681 0.1410 0
M  V30 275 C -1.1279 -6.7537 1.0096 0
M  V30 276 N -2.5235 -6.8602 1.2477 0
M  V30 277 C -3.3281 -6.8148 0.0928 0
M  V30 278 C -3.1563 -5.7562 -0.8044 0
M  V30 279 C -4.0032 -5.6130 -1.8832 0
M  V30 280 C -5.0444 -6.5235 -2.0827 0
M  V30 281 C -5.1478 -7.6401 -1.2450 0
M  V30 282 C -4.2948 -7.7876 -0.1729 0
M  V30 283 C -3.0561 -7.0054 2.5023 0
M  V30 284 C -4.4458 -6.9356 2.7010 0
M  V30 285 C -4.9820 -7.0448 3.9570 0
M  V30 286 C -4.1758 -7.2077 5.0904 0
M  V30 287 C -2.7851 -7.2685 4.8967 0
M  V30 288 C -2.2413 -7.1700 3.6381 0
M  V30 289 C -0.3679 -5.7342 1.5780 0
M  V30 290 C 0.9763 -5.6338 1.2782 0
M  V30 291 C 3.5756 -6.9239 2.3976 0
M  V30 292 C 4.4192 -6.7538 3.4686 0
M  V30 293 H 6.5293 -4.4551 2.1371 0
M  V30 294 H 5.0594 -4.7917 0.2145 0
M  V30 295 H 5.3971 -7.2633 -0.5596 0
M  V30 296 H 6.2196 -7.5614 -2.8450 0
M  V30 297 H 2.3933 -6.4775 -4.3943 0
M  V30 298 H 1.5821 -6.0616 -2.1051 0
M  V30 299 H 1.2741 -8.3051 -0.7942 0
M  V30 300 H -1.1269 -8.4627 -0.2849 0
M  V30 301 H -2.3862 -5.0229 -0.6244 0
M  V30 302 H -3.9073 -4.7648 -2.5421 0
M  V30 303 H -5.8760 -8.4069 -1.4598 0
M  V30 304 H -4.3789 -8.6561 0.4622 0
M  V30 305 H -5.1078 -6.8015 1.8626 0
M  V30 306 H -6.0490 -7.0538 4.0852 0
M  V30 307 H -2.1234 -7.3552 5.7426 0
M  V30 308 H -1.1710 -7.2325 3.5279 0
M  V30 309 H -0.8381 -5.0155 2.2289 0
M  V30 310 H 1.5668 -4.8363 1.6985 0
M  V30 311 H 2.7482 -7.6108 2.4693 0
M  V30 312 H 4.2681 -7.3219 4.3704 0
M  V30 313 Zn 6.4678 6.2800 7.2785 0 CHG=2
M  V30 314 C 9.9110 5.1655 10.5868 0
M  V30 315 C 8.6715 4.5510 10.5330 0
M  V30 316 C 7.7966 4.8844 9.4979 0
M  V30 317 H 8.3843 3.8305 11.2827 0
M  V30 318 N 8.1197 5.7787 8.5492 0
M  V30 319 C 6.5029 4.2632 9.3834 0
M  V30 320 C 9.3119 6.3484 8.5997 0
M  V30 321 C 10.2414 6.0793 9.5955 0
M  V30 322 H 9.5498 7.0538 7.8190 0
M  V30 323 H 11.1979 6.5765 9.5961 0
M  V30 324 H 10.6072 4.9393 11.3796 0
M  V30 325 N 5.7220 4.5563 8.4064 0
M  V30 326 H 6.2542 3.5115 10.1262 0
M  V30 327 C 3.8148 8.0746 10.9683 0
M  V30 328 C 3.3018 7.7756 9.7179 0
M  V30 329 C 4.1762 7.3708 8.7089 0
M  V30 330 H 2.2448 7.8617 9.5240 0
M  V30 331 N 5.4969 7.2427 8.9217 0
M  V30 332 C 3.7275 7.1292 7.3619 0
M  V30 333 C 5.9832 7.5587 10.1101 0
M  V30 334 C 5.1856 7.9787 11.1655 0
M  V30 335 H 7.0525 7.4838 10.2335 0
M  V30 336 H 5.6324 8.2267 12.1148 0
M  V30 337 H 3.1708 8.3894 11.7748 0
M  V30 338 N 4.5529 6.7654 6.4446 0
M  V30 339 H 2.6847 7.3411 7.1421 0
M  V30 340 C 9.1359 9.9758 5.7001 0
M  V30 341 C 9.1824 8.7059 5.1518 0
M  V30 342 C 8.2974 7.7327 5.6234 0
M  V30 343 H 9.8960 8.4678 4.3788 0
M  V30 344 N 7.4006 8.0034 6.5895 0
M  V30 345 C 8.2880 6.3938 5.0913 0
M  V30 346 C 7.3533 9.2226 7.1004 0
M  V30 347 C 8.1984 10.2436 6.6903 0
M  V30 348 H 6.6113 9.3959 7.8644 0
M  V30 349 H 8.1275 11.2227 7.1355 0
M  V30 350 H 9.8119 10.7471 5.3645 0
M  V30 351 N 7.4957 5.4918 5.5652 0
M  V30 352 H 8.9846 6.1903 4.2839 0
M  V30 353 Zn 5.7516 -6.0273 6.5194 0 CHG=2
M  V30 354 C 6.1768 -10.8484 6.8683 0
M  V30 355 C 4.9750 -10.1756 7.0015 0
M  V30 356 C 4.9522 -8.7905 6.8227 0
M  V30 357 H 4.0704 -10.7104 7.2448 0
M  V30 358 N 6.0639 -8.0958 6.5186 0
M  V30 359 C 3.7395 -8.0264 6.9549 0
M  V30 360 C 7.2060 -8.7489 6.3792 0
M  V30 361 C 7.3163 -10.1216 6.5463 0
M  V30 362 H 8.0739 -8.1594 6.1274 0
M  V30 363 H 8.2700 -10.6111 6.4332 0
M  V30 364 H 6.2298 -11.9169 7.0112 0
M  V30 365 N 3.7414 -6.7641 6.6908 0
M  V30 366 H 2.8452 -8.5612 7.2555 0
M  V30 367 C 4.7589 -5.2116 11.2294 0
M  V30 368 C 4.8892 -4.2082 10.2839 0
M  V30 369 C 5.2411 -4.5539 8.9800 0
M  V30 370 H 4.7233 -3.1766 10.5505 0
M  V30 371 N 5.4374 -5.8296 8.6089 0
M  V30 372 C 5.4617 -3.5652 7.9563 0
M  V30 373 C 5.3291 -6.7810 9.5215 0
M  V30 374 C 4.9960 -6.5238 10.8439 0
M  V30 375 H 5.5217 -7.7907 9.1942 0
M  V30 376 H 4.9308 -7.3339 11.5524 0
M  V30 377 H 4.4910 -4.9832 12.2494 0
M  V30 378 N 5.5806 -3.8998 6.7211 0
M  V30 379 H 5.5351 -2.5281 8.2721 0
M  V30 380 C 10.5089 -4.9890 6.6513 0
M  V30 381 C 9.7602 -5.0441 5.4873 0
M  V30 382 C 8.4031 -5.3546 5.5727 0
M  V30 383 H 10.2207 -4.8566 4.5304 0
M  V30 384 N 7.8009 -5.5875 6.7519 0
M  V30 385 C 7.5719 -5.4733 4.4013 0
M  V30 386 C 8.5226 -5.5378 7.8588 0
M  V30 387 C 9.8793 -5.2444 7.8618 0
M  V30 388 H 8.0035 -5.7418 8.7820 0
M  V30 389 H 10.4276 -5.2217 8.7899 0
M  V30 390 H 11.5626 -4.7583 6.6220 0
M  V30 391 N 6.3254 -5.7718 4.5097 0
M  V30 392 H 8.0562 -5.3384 3.4393 0
M  V30 393 Zn -6.6893 -6.4040 6.9414 0 CHG=2
M  V30 394 C -10.1733 -4.3868 9.7598 0
M  V30 395 C -8.8474 -3.9830 9.7527 0
M  V30 396 C -7.9618 -4.5978 8.8683 0
M  V30 397 H -8.5065 -3.2105 10.4239 0
M  V30 398 N -8.3540 -5.5610 8.0186 0
M  V30 399 C -6.5692 -4.2206 8.8062 0
M  V30 400 C -9.6219 -5.9333 8.0242 0
M  V30 401 C -10.5702 -5.3793 8.8754 0
M  V30 402 H -9.9049 -6.7073 7.3280 0
M  V30 403 H -11.5919 -5.7219 8.8468 0
M  V30 404 H -10.8842 -3.9398 10.4374 0
M  V30 405 N -5.7836 -4.7529 7.9442 0
M  V30 406 H -6.2388 -3.4466 9.4942 0
M  V30 407 C -5.0596 -8.9238 10.7984 0
M  V30 408 C -4.3432 -8.7468 9.6290 0
M  V30 409 C -4.9287 -8.0435 8.5729 0
M  V30 410 H -3.3500 -9.1546 9.5285 0
M  V30 411 N -6.1625 -7.5189 8.6696 0
M  V30 412 C -4.2561 -7.8951 7.3101 0
M  V30 413 C -6.8471 -7.7066 9.7870 0
M  V30 414 C -6.3439 -8.3996 10.8776 0
M  V30 415 H -7.8446 -7.2968 9.8214 0
M  V30 416 H -6.9442 -8.5281 11.7637 0
M  V30 417 H -4.6386 -9.4648 11.6318 0
M  V30 418 N -4.8121 -7.2861 6.3193 0
M  V30 419 H -3.2890 -8.3803 7.2220 0
M  V30 420 C -9.7858 -9.5230 4.8908 0
M  V30 421 C -9.5456 -8.2505 4.3984 0
M  V30 422 C -8.5816 -7.4586 5.0228 0
M  V30 423 H -10.1015 -7.8743 3.5542 0
M  V30 424 N -7.8762 -7.8989 6.0798 0
M  V30 425 C -8.2782 -6.1217 4.5684 0
M  V30 426 C -8.1039 -9.1175 6.5394 0
M  V30 427 C -9.0487 -9.9680 5.9802 0
M  V30 428 H -7.5122 -9.4354 7.3840 0
M  V30 429 H -9.2017 -10.9538 6.3885 0
M  V30 430 H -10.5297 -10.1600 4.4377 0
M  V30 431 N -7.4639 -5.3720 5.2226 0
M  V30 432 H -8.7676 -5.7781 3.6603 0
M  V30 433 Zn -5.0783 5.8779 6.3861 0 CHG=2
M  V30 434 C -4.3071 10.6218 5.5182 0
M  V30 435 C -3.3324 9.6478 5.3901 0
M  V30 436 C -3.6357 8.3389 5.7614 0
M  V30 437 H -2.3532 9.8959 5.0137 0
M  V30 438 N -4.8502 7.9917 6.2240 0
M  V30 439 C -2.6644 7.2812 5.7602 0
M  V30 440 C -5.7686 8.9336 6.3650 0
M  V30 441 C -5.5468 10.2605 6.0293 0
M  V30 442 H -6.7175 8.6240 6.7729 0
M  V30 443 H -6.3256 10.9921 6.1735 0
M  V30 444 H -4.1104 11.6464 5.2426 0
M  V30 445 N -3.0326 6.0582 5.9359 0
M  V30 446 H -1.6183 7.5476 5.6524 0
M  V30 447 C -3.6325 5.5043 10.9786 0
M  V30 448 C -3.9132 4.4185 10.1660 0
M  V30 449 C -4.3196 4.6473 8.8514 0
M  V30 450 H -3.8225 3.4126 10.5438 0
M  V30 451 N -4.4386 5.8906 8.3524 0
M  V30 452 C -4.6292 3.5683 7.9494 0
M  V30 453 C -4.1718 6.9236 9.1345 0
M  V30 454 C -3.7628 6.7826 10.4531 0
M  V30 455 H -4.2881 7.9007 8.6936 0
M  V30 456 H -3.5601 7.6544 11.0540 0
M  V30 457 H -3.3209 5.3636 12.0021 0
M  V30 458 N -4.9288 3.7993 6.7171 0
M  V30 459 H -4.6099 2.5659 8.3641 0
M  V30 460 C -9.8401 6.4098 7.1610 0
M  V30 461 C -9.2259 6.6643 5.9456 0
M  V30 462 C -7.8599 6.4137 5.8167 0
M  V30 463 H -9.7922 7.0533 5.1140 0
M  V30 464 N -7.1248 5.9312 6.8340 0
M  V30 465 C -7.1454 6.6607 4.5889 0
M  V30 466 C -7.7205 5.6802 7.9876 0
M  V30 467 C -9.0738 5.9037 8.2023 0
M  V30 468 H -7.0990 5.2889 8.7783 0
M  V30 469 H -9.5173 5.6937 9.1622 0
M  V30 470 H -10.8934 6.6022 7.2962 0
M  V30 471 N -5.9130 6.3074 4.5041 0
M  V30 472 H -7.6830 7.1220 3.7680 0
M  V30 473 Zn 6.1260 6.2204 -5.1796 0 CHG=2
M  V30 474 C 5.8863 5.9204 -10.0553 0
M  V30 475 C 5.7859 4.8403 -9.1970 0
M  V30 476 C 5.9098 5.0524 -7.8218 0
M  V30 477 H 5.6195 3.8479 -9.5850 0
M  V30 478 N 6.1080 6.2782 -7.3071 0
M  V30 479 C 5.8898 3.9556 -6.8922 0
M  V30 480 C 6.2227 7.3025 -8.1373 0
M  V30 481 C 6.1203 7.1782 -9.5149 0
M  V30 482 H 6.4139 8.2683 -7.6973 0
M  V30 483 H 6.2260 8.0454 -10.1466 0
M  V30 484 H 5.7968 5.7926 -11.1230 0
M  V30 485 N 6.0037 4.1363 -5.6204 0
M  V30 486 H 5.8360 2.9638 -7.3305 0
M  V30 487 C 10.9363 6.6058 -4.6360 0
M  V30 488 C 10.0373 6.6646 -3.5834 0
M  V30 489 C 8.6830 6.4536 -3.8438 0
M  V30 490 H 10.3780 6.8778 -2.5825 0
M  V30 491 N 8.2277 6.1897 -5.0812 0
M  V30 492 C 7.6880 6.5042 -2.7992 0
M  V30 493 C 9.0928 6.1225 -6.0784 0
M  V30 494 C 10.4564 6.3235 -5.9077 0
M  V30 495 H 8.6911 5.8987 -7.0543 0
M  V30 496 H 11.1251 6.2622 -6.7510 0
M  V30 497 H 11.9899 6.7729 -4.4730 0
M  V30 498 N 6.4373 6.3778 -3.0717 0
M  V30 499 H 8.0406 6.6591 -1.7827 0
M  V30 500 C 5.5726 11.0479 -5.6557 0
M  V30 501 C 4.5446 10.1279 -5.7806 0
M  V30 502 C 4.8136 8.7801 -5.5410 0
M  V30 503 H 3.5546 10.4478 -6.0643 0
M  V30 504 N 6.0351 8.3495 -5.1837 0
M  V30 505 C 3.7866 7.7741 -5.6424 0
M  V30 506 C 7.0073 9.2359 -5.0527 0
M  V30 507 C 6.8293 10.5940 -5.2798 0
M  V30 508 H 7.9732 8.8575 -4.7573 0
M  V30 509 H 7.6554 11.2775 -5.1686 0
M  V30 510 H 5.4027 12.0966 -5.8451 0
M  V30 511 N 4.0303 6.5438 -5.3572 0
M  V30 512 H 2.7941 8.1151 -5.9227 0
M  V30 513 Zn 6.5524 -6.3739 -5.8934 0 CHG=2
M  V30 514 C 10.1204 -9.2496 -4.3266 0
M  V30 515 C 9.9314 -7.9476 -3.8850 0
M  V30 516 C 8.8112 -7.2480 -4.3252 0
M  V30 517 H 10.6397 -7.4879 -3.2139 0
M  V30 518 N 7.9119 -7.7931 -5.1609 0
M  V30 519 C 8.5202 -5.8996 -3.8841 0
M  V30 520 C 8.0897 -9.0377 -5.5692 0
M  V30 521 C 9.1796 -9.8079 -5.1795 0
M  V30 522 H 7.3414 -9.4419 -6.2338 0
M  V30 523 H 9.2893 -10.8175 -5.5414 0
M  V30 524 H 10.9816 -9.8190 -4.0130 0
M  V30 525 N 7.4057 -5.3548 -4.1866 0
M  V30 526 H 9.2578 -5.4014 -3.2596 0
M  V30 527 C 10.0035 -3.8987 -8.3248 0
M  V30 528 C 8.7823 -3.3660 -7.9479 0
M  V30 529 C 7.8672 -4.1828 -7.2839 0
M  V30 530 H 8.5386 -2.3393 -8.1699 0
M  V30 531 N 8.1412 -5.4634 -6.9813 0
M  V30 532 C 6.5557 -3.7163 -6.9126 0
M  V30 533 C 9.3047 -5.9693 -7.3595 0
M  V30 534 C 10.2673 -5.2302 -8.0325 0
M  V30 535 H 9.4844 -7.0067 -7.1228 0
M  V30 536 H 11.1989 -5.6902 -8.3199 0
M  V30 537 H 10.7369 -3.2989 -8.8411 0
M  V30 538 N 5.6924 -4.5272 -6.4145 0
M  V30 539 H 6.3136 -2.6777 -7.1199 0
M  V30 540 C 4.6136 -9.0738 -9.4329 0
M  V30 541 C 4.0485 -8.9173 -8.1774 0
M  V30 542 C 4.6891 -8.0962 -7.2496 0
M  V30 543 H 3.1352 -9.4296 -7.9195 0
M  V30 544 N 5.8295 -7.4455 -7.5421 0
M  V30 545 C 4.1792 -7.9054 -5.9117 0
M  V30 546 C 6.3596 -7.5942 -8.7441 0
M  V30 547 C 5.7912 -8.3986 -9.7236 0
M  V30 548 H 7.2717 -7.0532 -8.9440 0
M  V30 549 H 6.2611 -8.4923 -10.6892 0
M  V30 550 H 4.1498 -9.7067 -10.1736 0
M  V30 551 N 4.8639 -7.2448 -5.0477 0
M  V30 552 H 3.2278 -8.3679 -5.6624 0
M  V30 553 Zn -5.6485 -5.9366 -5.2270 0 CHG=2
M  V30 554 C -6.0092 -6.0535 -10.0431 0
M  V30 555 C -6.2517 -4.9308 -9.2742 0
M  V30 556 C -6.0057 -4.9842 -7.8981 0
M  V30 557 H -6.6307 -4.0277 -9.7263 0
M  V30 558 N -5.5420 -6.0985 -7.3052 0
M  V30 559 C -6.2160 -3.8395 -7.0548 0
M  V30 560 C -5.2947 -7.1626 -8.0531 0
M  V30 561 C -5.5098 -7.1922 -9.4217 0
M  V30 562 H -4.9074 -8.0317 -7.5455 0
M  V30 563 H -5.2980 -8.0835 -9.9897 0
M  V30 564 H -6.1985 -6.0471 -11.1055 0
M  V30 565 N -5.9663 -3.8845 -5.7854 0
M  V30 566 H -6.5744 -2.9445 -7.5505 0
M  V30 567 C -10.4866 -6.4842 -4.6277 0
M  V30 568 C -9.5651 -6.6180 -3.6023 0
M  V30 569 C -8.2148 -6.3997 -3.8761 0
M  V30 570 H -9.8857 -6.8929 -2.6100 0
M  V30 571 N -7.7802 -6.0509 -5.0974 0
M  V30 572 C -7.2077 -6.5607 -2.8594 0
M  V30 573 C -8.6670 -5.9193 -6.0691 0
M  V30 574 C -10.0279 -6.1289 -5.8882 0
M  V30 575 H -8.2888 -5.6409 -7.0404 0
M  V30 576 H -10.7091 -6.0201 -6.7166 0
M  V30 577 H -11.5378 -6.6556 -4.4548 0
M  V30 578 N -5.9749 -6.2938 -3.0982 0
M  V30 579 H -7.5414 -6.9044 -1.8846 0
M  V30 580 C -5.0235 -10.7571 -4.6999 0
M  V30 581 C -4.0070 -9.8223 -4.6055 0
M  V30 582 C -4.3075 -8.4748 -4.8081 0
M  V30 583 H -2.9986 -10.1315 -4.3811 0
M  V30 584 N -5.5559 -8.0583 -5.0784 0
M  V30 585 C -3.2873 -7.4602 -4.7720 0
M  V30 586 C -6.5172 -8.9597 -5.1893 0
M  V30 587 C -6.3043 -10.3184 -5.0071 0
M  V30 588 H -7.4992 -8.5910 -5.4382 0
M  V30 589 H -7.1222 -11.0130 -5.1100 0
M  V30 590 H -4.8287 -11.8076 -4.5486 0
M  V30 591 N -3.5642 -6.2101 -4.9138 0
M  V30 592 H -2.2672 -7.8148 -4.6577 0
M  V30 593 Zn -6.2746 6.7307 -5.9204 0 CHG=2
M  V30 594 C -4.9236 9.8797 -9.3805 0
M  V30 595 C -4.4709 9.9326 -8.0740 0
M  V30 596 C -4.8379 8.9153 -7.1896 0
M  V30 597 H -3.8513 10.7501 -7.7398 0
M  V30 598 N -5.6165 7.8872 -7.5702 0
M  V30 599 C -4.3849 8.9058 -5.8226 0
M  V30 600 C -6.0281 7.8349 -8.8266 0
M  V30 601 C -5.7111 8.8031 -9.7684 0
M  V30 602 H -6.6347 6.9877 -9.1055 0
M  V30 603 H -6.0734 8.7180 -10.7800 0
M  V30 604 H -4.6674 10.6548 -10.0862 0
M  V30 605 N -4.7881 7.9991 -5.0011 0
M  V30 606 H -3.6947 9.6904 -5.5259 0
M  V30 607 C -9.9895 9.5432 -4.4124 0
M  V30 608 C -9.8025 8.2312 -4.0041 0
M  V30 609 C -8.6544 7.5576 -4.4154 0
M  V30 610 H -10.5347 7.7406 -3.3822 0
M  V30 611 N -7.7228 8.1388 -5.1871 0
M  V30 612 C -8.3824 6.1976 -4.0055 0
M  V30 613 C -7.9003 9.3935 -5.5615 0
M  V30 614 C -9.0173 10.1385 -5.2028 0
M  V30 615 H -7.1276 9.8313 -6.1743 0
M  V30 616 H -9.1223 11.1576 -5.5383 0
M  V30 617 H -10.8717 10.0920 -4.1212 0
M  V30 618 N -7.2781 5.6351 -4.3204 0
M  V30 619 H -9.1253 5.7113 -3.3776 0
M  V30 620 C -9.6110 4.5287 -8.7490 0
M  V30 621 C -8.3887 3.9825 -8.4047 0
M  V30 622 C -7.5200 4.7167 -7.5917 0
M  V30 623 H -8.1049 3.0066 -8.7647 0
M  V30 624 N -7.8464 5.9330 -7.1223 0
M  V30 625 C -6.2209 4.2093 -7.2491 0
M  V30 626 C -9.0113 6.4557 -7.4734 0
M  V30 627 C -9.9268 5.7978 -8.2799 0
M  V30 628 H -9.2308 7.4467 -7.1092 0
M  V30 629 H -10.8607 6.2709 -8.5363 0
M  V30 630 H -10.3049 3.9905 -9.3760 0
M  V30 631 N -5.3935 4.8665 -6.5062 0
M  V30 632 H -5.9650 3.2518 -7.6907 0
M  V30 END ATOM
M  V30 BEGIN BOND
M  V30 1 2 1 2
M  V30 2 1 2 3
M  V30 3 2 3 4
M  V30 4 1 4 5
M  V30 5 1 5 6
M  V30 6 2 6 7
M  V30 7 1 7 8
M  V30 8 2 8 9
M  V30 9 1 9 10
M  V30 10 2 10 11
M  V30 11 1 5 12
M  V30 12 2 12 13
M  V30 13 1 13 14
M  V30 14 2 14 15
M  V30 15 1 15 16
M  V30 16 1 16 17
M  V30 17 2 17 18
M  V30 18 1 18 19
M  V30 19 2 19 20
M  V30 20 1 20 21
M  V30 21 2 21 22
M  V30 22 1 16 23
M  V30 23 2 23 24
M  V30 24 1 24 25
M  V30 25 2 25 26
M  V30 26 1 26 27
M  V30 27 2 27 28
M  V30 28 1 15 29
M  V30 29 2 29 30
M  V30 30 1 4 31
M  V30 31 2 31 32
M  V30 32 1 32 1
M  V30 33 1 11 6
M  V30 34 1 30 12
M  V30 35 1 22 17
M  V30 36 1 28 23
M  V30 37 1 2 33
M  V30 38 1 3 34
M  V30 39 1 7 35
M  V30 40 1 8 36
M  V30 41 1 10 37
M  V30 42 1 11 38
M  V30 43 1 13 39
M  V30 44 1 14 40
M  V30 45 1 18 41
M  V30 46 1 19 42
M  V30 47 1 21 43
M  V30 48 1 22 44
M  V30 49 1 24 45
M  V30 50 1 25 46
M  V30 51 1 27 47
M  V30 52 1 28 48
M  V30 53 1 29 49
M  V30 54 1 30 50
M  V30 55 1 31 51
M  V30 56 1 32 52
M  V30 57 2 53 54
M  V30 58 1 54 55
M  V30 59 2 55 56
M  V30 60 1 56 57
M  V30 61 1 57 58
M  V30 62 2 58 59
M  V30 63 1 59 60
M  V30 64 2 60 61
M  V30 65 1 61 62
M  V30 66 2 62 63
M  V30 67 1 57 64
M  V30 68 2 64 65
M  V30 69 1 65 66
M  V30 70 2 66 67
M  V30 71 1 67 68
M  V30 72 1 68 69
M  V30 73 2 69 70
M  V30 74 1 70 71
M  V30 75 2 71 72
M  V30 76 1 72 73
M  V30 77 2 73 74
M  V30 78 1 68 75
M  V30 79 2 75 76
M  V30 80 1 76 77
M  V30 81 2 77 78
M  V30 82 1 78 79
M  V30 83 2 79 80
M  V30 84 1 67 81
M  V30 85 2 81 82
M  V30 86 1 56 83
M  V30 87 2 83 84
M  V30 88 1 84 53
M  V30 89 1 63 58
M  V30 90 1 82 64
M  V30 91 1 74 69
M  V30 92 1 80 75
M  V30 93 1 54 85
M  V30 94 1 55 86
M  V30 95 1 59 87
M  V30 96 1 60 88
M  V30 97 1 62 89
M  V30 98 1 63 90
M  V30 99 1 65 91
M  V30 100 1 66 92
M  V30 101 1 70 93
M  V30 102 1 71 94
M  V30 103 1 73 95
M  V30 104 1 74 96
M  V30 105 1 76 97
M  V30 106 1 77 98
M  V30 107 1 79 99
M  V30 108 1 80 100
M  V30 109 1 81 101
M  V30 110 1 82 102
M  V30 111 1 83 103
M  V30 112 1 84 104
M  V30 113 2 105 106
M  V30 114 1 106 107
M  V30 115 2 107 108
M  V30 116 1 108 109
M  V30 117 1 109 110
M  V30 118 2 110 111
M  V30 119 1 111 112
M  V30 120 2 112 113
M  V30 121 1 113 114
M  V30 122 2 114 115
M  V30 123 1 109 116
M  V30 124 2 116 117
M  V30 125 1 117 118
M  V30 126 2 118 119
M  V30 127 1 119 120
M  V30 128 1 120 121
M  V30 129 2 121 122
M  V30 130 1 122 123
M  V30 131 2 123 124
M  V30 132 1 124 125
M  V30 133 2 125 126
M  V30 134 1 120 127
M  V30 135 2 127 128
M  V30 136 1 128 129
M  V30 137 2 129 130
M  V30 138 1 130 131
M  V30 139 2 131 132
M  V30 140 1 119 133
M  V30 141 2 133 134
M  V30 142 1 108 135
M  V30 143 2 135 136
M  V30 144 1 136 105
M  V30 145 1 115 110
M  V30 146 1 134 116
M  V30 147 1 126 121
M  V30 148 1 132 127
M  V30 149 1 106 137
M  V30 150 1 107 138
M  V30 151 1 111 139
M  V30 152 1 112 140
M  V30 153 1 114 141
M  V30 154 1 115 142
M  V30 155 1 117 143
M  V30 156 1 118 144
M  V30 157 1 122 145
M  V30 158 1 123 146
M  V30 159 1 125 147
M  V30 160 1 126 148
M  V30 161 1 128 149
M  V30 162 1 129 150
M  V30 163 1 131 151
M  V30 164 1 132 152
M  V30 165 1 133 153
M  V30 166 1 134 154
M  V30 167 1 135 155
M  V30 168 1 136 156
M  V30 169 2 157 158
M  V30 170 1 158 159
M  V30 171 2 159 160
M  V30 172 1 160 161
M  V30 173 1 161 162
M  V30 174 2 162 163
M  V30 175 1 163 164
M  V30 176 2 164 165
M  V30 177 1 165 166
M  V30 178 2 166 167
M  V30 179 1 161 168
M  V30 180 2 168 169
M  V30 181 1 169 170
M  V30 182 2 170 171
M  V30 183 1 171 172
M  V30 184 1 172 173
M  V30 185 2 173 174
M  V30 186 1 174 175
M  V30 187 2 175 176
M  V30 188 1 176 177
M  V30 189 2 177 178
M  V30 190 1 172 179
M  V30 191 2 179 180
M  V30 192 1 180 181
M  V30 193 2 181 182
M  V30 194 1 182 183
M  V30 195 2 183 184
M  V30 196 1 171 185
M  V30 197 2 185 186
M  V30 198 1 160 187
M  V30 199 2 187 188
M  V30 200 1 188 157
M  V30 201 1 167 162
M  V30 202 1 186 168
M  V30 203 1 178 173
M  V30 204 1 184 179
M  V30 205 1 158 189
M  V30 206 1 159 190
M  V30 207 1 163 191
M  V30 208 1 164 192
M  V30 209 1 166 193
M  V30 210 1 167 194
M  V30 211 1 169 195
M  V30 212 1 170 196
M  V30 213 1 174 197
M  V30 214 1 175 198
M  V30 215 1 177 199
M  V30 216 1 178 200
M  V30 217 1 180 201
M  V30 218 1 181 202
M  V30 219 1 183 203
M  V30 220 1 184 204
M  V30 221 1 185 205
M  V30 222 1 186 206
M  V30 223 1 187 207
M  V30 224 1 188 208
M  V30 225 2 209 210
M  V30 226 1 210 211
M  V30 227 2 211 212
M  V30 228 1 212 213
M  V30 229 1 213 214
M  V30 230 2 214 215
M  V30 231 1 215 216
M  V30 232 2 216 217
M  V30 233 1 217 218
M  V30 234 2 218 219
M  V30 235 1 213 220
M  V30 236 2 220 221
M  V30 237 1 221 222
M  V30 238 2 222 223
M  V30 239 1 223 224
M  V30 240 1 224 225
M  V30 241 2 225 226
M  V30 242 1 226 227
M  V30 243 2 227 228
M  V30 244 1 228 229
M  V30 245 2 229 230
M  V30 246 1 224 231
M  V30 247 2 231 232
M  V30 248 1 232 233
M  V30 249 2 233 234
M  V30 250 1 234 235
M  V30 251 2 235 236
M  V30 252 1 223 237
M  V30 253 2 237 238
M  V30 254 1 212 239
M  V30 255 2 239 240
M  V30 256 1 240 209
M  V30 257 1 219 214
M  V30 258 1 238 220
M  V30 259 1 230 225
M  V30 260 1 236 231
M  V30 261 1 210 241
M  V30 262 1 211 242
M  V30 263 1 215 243
M  V30 264 1 216 244
M  V30 265 1 218 245
M  V30 266 1 219 246
M  V30 267 1 221 247
M  V30 268 1 222 248
M  V30 269 1 226 249
M  V30 270 1 227 250
M  V30 271 1 229 251
M  V30 272 1 230 252
M  V30 273 1 232 253
M  V30 274 1 233 254
M  V30 275 1 235 255
M  V30 276 1 236 256
M  V30 277 1 237 257
M  V30 278 1 238 258
M  V30 279 1 239 259
M  V30 280 1 240 260
M  V30 281 2 261 262
M  V30 282 1 262 263
M  V30 283 2 263 264
M  V30 284 1 264 265
M  V30 285 1 265 266
M  V30 286 2 266 267
M  V30 287 1 267 268
M  V30 288 2 268 269
M  V30 289 1 269 270
M  V30 290 2 270 271
M  V30 291 1 265 272
M  V30 292 2 272 273
M  V30 293 1 273 274
M  V30 294 2 274 275
M  V30 295 1 275 276
M  V30 296 1 276 277
M  V30 297 2 277 278
M  V30 298 1 278 279
M  V30 299 2 279 280
M  V30 300 1 280 281
M  V30 301 2 281 282
M  V30 302 1 276 283
M  V30 303 2 283 284
M  V30 304 1 284 285
M  V30 305 2 285 286
M  V30 306 1 286 287
M  V30 307 2 287 288
M  V30 308 1 275 289
M  V30 309 2 289 290
M  V30 310 1 264 291
M  V30 311 2 291 292
M  V30 312 1 292 261
M  V30 313 1 271 266
M  V30 314 1 290 272
M  V30 315 1 282 277
M  V30 316 1 288 283
M  V30 317 1 262 293
M  V30 318 1 263 294
M  V30 319 1 267 295
M  V30 320 1 268 296
M  V30 321 1 270 297
M  V30 322 1 271 298
M  V30 323 1 273 299
M  V30 324 1 274 300
M  V30 325 1 278 301
M  V30 326 1 279 302
M  V30 327 1 281 303
M  V30 328 1 282 304
M  V30 329 1 284 305
M  V30 330 1 285 306
M  V30 331 1 287 307
M  V30 332 1 288 308
M  V30 333 1 289 309
M  V30 334 1 290 310
M  V30 335 1 291 311
M  V30 336 1 292 312
M  V30 337 1 314 324
M  V30 338 2 314 321
M  V30 339 1 315 314
M  V30 340 2 316 315
M  V30 341 1 316 318
M  V30 342 1 317 315
M  V30 343 2 318 320
M  V30 344 1 319 316
M  V30 345 1 320 321
M  V30 346 1 320 322
M  V30 347 1 321 323
M  V30 348 2 325 319
M  V30 349 1 326 319
M  V30 350 1 327 337
M  V30 351 2 327 334
M  V30 352 1 328 327
M  V30 353 2 329 328
M  V30 354 1 329 331
M  V30 355 1 330 328
M  V30 356 2 331 333
M  V30 357 1 332 329
M  V30 358 1 333 334
M  V30 359 1 333 335
M  V30 360 1 334 336
M  V30 361 2 338 332
M  V30 362 1 339 332
M  V30 363 1 340 350
M  V30 364 2 340 347
M  V30 365 1 341 340
M  V30 366 2 342 341
M  V30 367 1 342 344
M  V30 368 1 343 341
M  V30 369 2 344 346
M  V30 370 1 345 342
M  V30 371 1 346 347
M  V30 372 1 346 348
M  V30 373 1 347 349
M  V30 374 2 351 345
M  V30 375 1 352 345
M  V30 376 9 325 313
M  V30 377 9 318 313
M  V30 378 9 338 313
M  V30 379 9 331 313
M  V30 380 9 351 313
M  V30 381 9 344 313
M  V30 382 1 354 364
M  V30 383 2 354 361
M  V30 384 1 355 354
M  V30 385 2 356 355
M  V30 386 1 356 358
M  V30 387 1 357 355
M  V30 388 2 358 360
M  V30 389 1 359 356
M  V30 390 1 360 361
M  V30 391 1 360 362
M  V30 392 1 361 363
M  V30 393 2 365 359
M  V30 394 1 366 359
M  V30 395 1 367 377
M  V30 396 2 367 374
M  V30 397 1 368 367
M  V30 398 2 369 368
M  V30 399 1 369 371
M  V30 400 1 370 368
M  V30 401 2 371 373
M  V30 402 1 372 369
M  V30 403 1 373 374
M  V30 404 1 373 375
M  V30 405 1 374 376
M  V30 406 2 378 372
M  V30 407 1 379 372
M  V30 408 1 380 390
M  V30 409 2 380 387
M  V30 410 1 381 380
M  V30 411 2 382 381
M  V30 412 1 382 384
M  V30 413 1 383 381
M  V30 414 2 384 386
M  V30 415 1 385 382
M  V30 416 1 386 387
M  V30 417 1 386 388
M  V30 418 1 387 389
M  V30 419 2 391 385
M  V30 420 1 392 385
M  V30 421 9 365 353
M  V30 422 9 358 353
M  V30 423 9 378 353
M  V30 424 9 371 353
M  V30 425 9 391 353
M  V30 426 9 384 353
M  V30 427 1 394 404
M  V30 428 2 394 401
M  V30 429 1 395 394
M  V30 430 2 396 395
M  V30 431 1 396 398
M  V30 432 1 397 395
M  V30 433 2 398 400
M  V30 434 1 399 396
M  V30 435 1 400 401
M  V30 436 1 400 402
M  V30 437 1 401 403
M  V30 438 2 405 399
M  V30 439 1 406 399
M  V30 440 1 407 417
M  V30 441 2 407 414
M  V30 442 1 408 407
M  V30 443 2 409 408
M  V30 444 1 409 411
M  V30 445 1 410 408
M  V30 446 2 411 413
M  V30 447 1 412 409
M  V30 448 1 413 414
M  V30 449 1 413 415
M  V30 450 1 414 416
M  V30 451 2 418 412
M  V30 452 1 419 412
M  V30 453 1 420 430
M  V30 454 2 420 427
M  V30 455 1 421 420
M  V30 456 2 422 421
M  V30 457 1 422 424
M  V30 458 1 423 421
M  V30 459 2 424 426
M  V30 460 1 425 422
M  V30 461 1 426 427
M  V30 462 1 426 428
M  V30 463 1 427 429
M  V30 464 2 431 425
M  V30 465 1 432 425
M  V30 466 9 405 393
M  V30 467 9 398 393
M  V30 468 9 418 393
M  V30 469 9 411 393
M  V30 470 9 431 393
M  V30 471 9 424 393
M  V30 472 1 434 444
M  V30 473 2 434 441
M  V30 474 1 435 434
M  V30 475 2 436 435
M  V30 476 1 436 438
M  V30 477 1 437 435
M  V30 478 2 438 440
M  V30 479 1 439 436
M  V30 480 1 440 441
M  V30 481 1 440 442
M  V30 482 1 441 443
M  V30 483 2 445 439
M  V30 484 1 446 439
M  V30 485 1 447 457
M  V30 486 2 447 454
M  V30 487 1 448 447
M  V30 488 2 449 448
M  V30 489 1 449 451
M  V30 490 1 450 448
M  V30 491 2 451 453
M  V30 492 1 452 449
M  V30 493 1 453 454
M  V30 494 1 453 455
M  V30 495 1 454 456
M  V30 496 2 458 452
M  V30 497 1 459 452
M  V30 498 1 460 470
M  V30 499 2 460 467
M  V30 500 1 461 460
M  V30 501 2 462 461
M  V30 502 1 462 464
M  V30 503 1 463 461
M  V30 504 2 464 466
M  V30 505 1 465 462
M  V30 506 1 466 467
M  V30 507 1 466 468
M  V30 508 1 467 469
M  V30 509 2 471 465
M  V30 510 1 472 465
M  V30 511 9 445 433
M  V30 512 9 438 433
M  V30 513 9 458 433
M  V30 514 9 451 433
M  V30 515 9 471 433
M  V30 516 9 464 433
M  V30 517 1 474 484
M  V30 518 2 474 481
M  V30 519 1 475 474
M  V30 520 2 476 475
M  V30 521 1 476 478
M  V30 522 1 477 475
M  V30 523 2 478 480
M  V30 524 1 479 476
M  V30 525 1 480 481
M  V30 526 1 480 482
M  V30 527 1 481 483
M  V30 528 2 485 479
M  V30 529 1 486 479
M  V30 530 1 487 497
M  V30 531 2 487 494
M  V30 532 1 488 487
M  V30 533 2 489 488
M  V30 534 1 489 491
M  V30 535 1 490 488
M  V30 536 2 491 493
M  V30 537 1 492 489
M  V30 538 1 493 494
M  V30 539 1 493 495
M  V30 540 1 494 496
M  V30 541 2 498 492
M  V30 542 1 499 492
M  V30 543 1 500 510
M  V30 544 2 500 507
M  V30 545 1 501 500
M  V30 546 2 502 501
M  V30 547 1 502 504
M  V30 548 1 503 501
M  V30 549 2 504 506
M  V30 550 1 505 502
M  V30 551 1 506 507
M  V30 552 1 506 508
M  V30 553 1 507 509
M  V30 554 2 511 505
M  V30 555 1 512 505
M  V30 556 9 485 473
M  V30 557 9 478 473
M  V30 558 9 498 473
M  V30 559 9 491 473
M  V30 560 9 511 473
M  V30 561 9 504 473
M  V30 562 1 514 524
M  V30 563 2 514 521
M  V30 564 1 515 514
M  V30 565 2 516 515
M  V30 566 1 516 518
M  V30 567 1 517 515
M  V30 568 2 518 520
M  V30 569 1 519 516
M  V30 570 1 520 521
M  V30 571 1 520 522
M  V30 572 1 521 523
M  V30 573 2 525 519
M  V30 574 1 526 519
M  V30 575 1 527 537
M  V30 576 2 527 534
M  V30 577 1 528 527
M  V30 578 2 529 528
M  V30 579 1 529 531
M  V30 580 1 530 528
M  V30 581 2 531 533
M  V30 582 1 532 529
M  V30 583 1 533 534
M  V30 584 1 533 535
M  V30 585 1 534 536
M  V30 586 2 538 532
M  V30 587 1 539 532
M  V30 588 1 540 550
M  V30 589 2 540 547
M  V30 590 1 541 540
M  V30 591 2 542 541
M  V30 592 1 542 544
M  V30 593 1 543 541
M  V30 594 2 544 546
M  V30 595 1 545 542
M  V30 596 1 546 547
M  V30 597 1 546 548
M  V30 598 1 547 549
M  V30 599 2 551 545
M  V30 600 1 552 545
M  V30 601 9 525 513
M  V30 602 9 518 513
M  V30 603 9 538 513
M  V30 604 9 531 513
M  V30 605 9 551 513
M  V30 606 9 544 513
M  V30 607 1 554 564
M  V30 608 2 554 561
M  V30 609 1 555 554
M  V30 610 2 556 555
M  V30 611 1 556 558
M  V30 612 1 557 555
M  V30 613 2 558 560
M  V30 614 1 559 556
M  V30 615 1 560 561
M  V30 616 1 560 562
M  V30 617 1 561 563
M  V30 618 2 565 559
M  V30 619 1 566 559
M  V30 620 1 567 577
M  V30 621 2 567 574
M  V30 622 1 568 567
M  V30 623 2 569 568
M  V30 624 1 569 571
M  V30 625 1 570 568
M  V30 626 2 571 573
M  V30 627 1 572 569
M  V30 628 1 573 574
M  V30 629 1 573 575
M  V30 630 1 574 576
M  V30 631 2 578 572
M  V30 632 1 579 572
M  V30 633 1 580 590
M  V30 634 2 580 587
M  V30 635 1 581 580
M  V30 636 2 582 581
M  V30 637 1 582 584
M  V30 638 1 583 581
M  V30 639 2 584 586
M  V30 640 1 585 582
M  V30 641 1 586 587
M  V30 642 1 586 588
M  V30 643 1 587 589
M  V30 644 2 591 585
M  V30 645 1 592 585
M  V30 646 9 565 553
M  V30 647 9 558 553
M  V30 648 9 578 553
M  V30 649 9 571 553
M  V30 650 9 591 553
M  V30 651 9 584 553
M  V30 652 1 594 604
M  V30 653 2 594 601
M  V30 654 1 595 594
M  V30 655 2 596 595
M  V30 656 1 596 598
M  V30 657 1 597 595
M  V30 658 2 598 600
M  V30 659 1 599 596
M  V30 660 1 600 601
M  V30 661 1 600 602
M  V30 662 1 601 603
M  V30 663 2 605 599
M  V30 664 1 606 599
M  V30 665 1 607 617
M  V30 666 2 607 614
M  V30 667 1 608 607
M  V30 668 2 609 608
M  V30 669 1 609 611
M  V30 670 1 610 608
M  V30 671 2 611 613
M  V30 672 1 612 609
M  V30 673 1 613 614
M  V30 674 1 613 615
M  V30 675 1 614 616
M  V30 676 2 618 612
M  V30 677 1 619 612
M  V30 678 1 620 630
M  V30 679 2 620 627
M  V30 680 1 621 620
M  V30 681 2 622 621
M  V30 682 1 622 624
M  V30 683 1 623 621
M  V30 684 2 624 626
M  V30 685 1 625 622
M  V30 686 1 626 627
M  V30 687 1 626 628
M  V30 688 1 627 629
M  V30 689 2 631 625
M  V30 690 1 632 625
M  V30 691 9 605 593
M  V30 692 9 598 593
M  V30 693 9 618 593
M  V30 694 9 611 593
M  V30 695 9 631 593
M  V30 696 9 624 593
M  V30 697 1 9 325
M  V30 698 1 20 365
M  V30 699 1 26 405
M  V30 700 1 1 445
M  V30 701 1 53 485
M  V30 702 1 61 525
M  V30 703 1 72 378
M  V30 704 1 78 351
M  V30 705 1 105 498
M  V30 706 1 113 338
M  V30 707 1 124 471
M  V30 708 1 130 605
M  V30 709 1 157 458
M  V30 710 1 165 431
M  V30 711 1 176 565
M  V30 712 1 182 618
M  V30 713 1 217 538
M  V30 714 1 228 511
M  V30 715 1 234 631
M  V30 716 1 209 591
M  V30 717 1 261 391
M  V30 718 1 269 551
M  V30 719 1 280 578
M  V30 720 1 286 418
M  V30 END BOND
M  V30 END CTAB
M  END

$$$$
