
     RDKit          3D

  0  0  0  0  0  0  0  0  0  0999 V3000
M  V30 BEGIN CTAB
M  V30 COUNTS 632 720 0 0 0
M  V30 BEGIN ATOM
M  V30 1 C -3.4482 4.2305 8.0740 0
M  V30 2 C -2.4033 4.9911 7.5365 0
M  V30 3 C -1.1660 4.4302 7.3173 0
M  V30 4 C -0.9396 3.0739 7.5951 0
M  V30 5 N 0.2711 2.4800 7.2881 0
M  V30 6 C 1.4895 3.1596 7.3394 0
M  V30 7 C 1.7738 4.0801 8.3520 0
M  V30 8 C 3.0186 4.6682 8.4195 0
M  V30 9 C 3.9748 4.4085 7.4342 0
M  V30 10 C 3.6700 3.5378 6.3859 0
M  V30 11 C 2.4549 2.8882 6.3624 0
M  V30 12 C 0.3035 1.0821 7.0676 0
M  V30 13 C 1.1675 0.2742 7.8037 0
M  V30 14 C 1.0998 -1.0997 7.6797 0
M  V30 15 C 0.1762 -1.6694 6.8060 0
M  V30 16 N -0.0366 -3.0672 6.7408 0
M  V30 17 C 0.9830 -3.9791 6.7040 0
M  V30 18 C 2.2741 -3.5818 6.3184 0
M  V30 19 C 3.3014 -4.4869 6.3347 0
M  V30 20 C 3.1117 -5.8299 6.6918 0
M  V30 21 C 1.8088 -6.2289 7.0490 0
M  V30 22 C 0.7744 -5.3262 7.0523 0
M  V30 23 C -1.3931 -3.4254 6.8649 0
M  V30 24 C -2.0272 -4.2031 5.8949 0
M  V30 25 C -3.3898 -4.4009 5.9613 0
M  V30 26 C -4.1443 -3.8537 7.0028 0
M  V30 27 C -3.4887 -3.1333 8.0117 0
M  V30 28 C -2.1345 -2.9067 7.9295 0
M  V30 29 C -0.6328 -0.8546 6.0107 0
M  V30 30 C -0.5707 0.5157 6.1405 0
M  V30 31 C -1.9938 2.3085 8.1151 0
M  V30 32 C -3.2171 2.8791 8.3670 0
M  V30 33 H -2.5769 6.0340 7.3281 0
M  V30 34 H -0.3699 5.0319 6.9113 0
M  V30 35 H 1.0371 4.3016 9.1081 0
M  V30 36 H 3.2468 5.3589 9.2166 0
M  V30 37 H 4.4108 3.3595 5.6234 0
M  V30 38 H 2.2385 2.1757 5.5815 0
M  V30 39 H 1.8506 0.7188 8.5095 0
M  V30 40 H 1.7233 -1.7272 8.2963 0
M  V30 41 H 2.4588 -2.5662 6.0092 0
M  V30 42 H 4.3000 -4.1804 6.0766 0
M  V30 43 H 1.5994 -7.2431 7.3473 0
M  V30 44 H -0.2059 -5.6524 7.3627 0
M  V30 45 H -1.4517 -4.6171 5.0830 0
M  V30 46 H -3.8996 -4.9423 5.1828 0
M  V30 47 H -4.0299 -2.7987 8.8822 0
M  V30 48 H -1.6344 -2.3469 8.7041 0
M  V30 49 H -1.3118 -1.3031 5.3043 0
M  V30 50 H -1.2037 1.1535 5.5455 0
M  V30 51 H -1.8437 1.2663 8.3425 0
M  V30 52 H -4.0169 2.2664 8.7501 0
M  V30 53 C 7.8289 3.5911 -4.1350 0
M  V30 54 C 7.2126 2.6325 -4.9478 0
M  V30 55 C 6.9557 1.3654 -4.4738 0
M  V30 56 C 7.2764 1.0278 -3.1513 0
M  V30 57 N 6.8886 -0.1820 -2.6010 0
M  V30 58 C 6.8933 -1.3923 -3.2921 0
M  V30 59 C 7.8514 -1.6866 -4.2662 0
M  V30 60 C 7.9042 -2.9461 -4.8279 0
M  V30 61 C 6.9565 -3.9099 -4.4793 0
M  V30 62 C 5.9532 -3.5926 -3.5593 0
M  V30 63 C 5.9397 -2.3575 -2.9491 0
M  V30 64 C 6.7293 -0.2139 -1.1912 0
M  V30 65 C 7.5149 -1.0582 -0.4106 0
M  V30 66 C 7.5190 -0.9099 0.9620 0
M  V30 67 C 6.7319 0.0741 1.5572 0
M  V30 68 N 6.8696 0.3378 2.9421 0
M  V30 69 C 6.8767 -0.7508 3.8125 0
M  V30 70 C 5.9837 -1.8051 3.5881 0
M  V30 71 C 5.9205 -2.8634 4.4649 0
M  V30 72 C 6.7344 -2.8976 5.6038 0
M  V30 73 C 7.6904 -1.8852 5.7744 0
M  V30 74 C 7.7626 -0.8311 4.8930 0
M  V30 75 C 7.0706 1.6366 3.3688 0
M  V30 76 C 6.7763 2.0170 4.6882 0
M  V30 77 C 6.8865 3.3312 5.0749 0
M  V30 78 C 7.2877 4.3234 4.1712 0
M  V30 79 C 7.6149 3.9393 2.8620 0
M  V30 80 C 7.5055 2.6271 2.4724 0
M  V30 81 C 5.8429 0.8230 0.7842 0
M  V30 82 C 5.8456 0.6819 -0.5879 0
M  V30 83 C 7.9196 1.9815 -2.3483 0
M  V30 84 C 8.2054 3.2327 -2.8331 0
M  V30 85 H 6.9635 2.8983 -5.9621 0
M  V30 86 H 6.4800 0.6394 -5.1133 0
M  V30 87 H 8.5861 -0.9481 -4.5475 0
M  V30 88 H 8.6664 -3.1806 -5.5555 0
M  V30 89 H 5.2374 -4.3535 -3.2934 0
M  V30 90 H 5.1910 -2.1255 -2.2080 0
M  V30 91 H 8.1691 -1.7738 -0.8814 0
M  V30 92 H 8.1805 -1.5074 1.5681 0
M  V30 93 H 5.3151 -1.7697 2.7428 0
M  V30 94 H 5.1981 -3.6443 4.2957 0
M  V30 95 H 8.4098 -1.9552 6.5757 0
M  V30 96 H 8.5179 -0.0732 5.0320 0
M  V30 97 H 6.4398 1.2818 5.4009 0
M  V30 98 H 6.6859 3.6192 6.0955 0
M  V30 99 H 7.9126 4.6782 2.1369 0
M  V30 100 H 7.7689 2.3609 1.4624 0
M  V30 101 H 5.1824 1.5287 1.2614 0
M  V30 102 H 5.1945 1.2800 -1.2041 0
M  V30 103 H 8.2138 1.7300 -1.3431 0
M  V30 104 H 8.6715 3.9592 -2.1872 0
M  V30 105 C 4.3514 6.3429 -3.8093 0
M  V30 106 C 5.0748 5.6871 -2.8022 0
M  V30 107 C 4.4845 5.3472 -1.6070 0
M  V30 108 C 3.1307 5.6456 -1.3677 0
M  V30 109 N 2.5349 5.3956 -0.1518 0
M  V30 110 C 3.1934 5.4588 1.0843 0
M  V30 111 C 4.3032 6.2742 1.3272 0
M  V30 112 C 4.7242 6.5056 2.6216 0
M  V30 113 C 4.0168 5.9713 3.7004 0
M  V30 114 C 2.9808 5.0638 3.4547 0
M  V30 115 C 2.6018 4.7836 2.1630 0
M  V30 116 C 1.1141 5.4932 -0.0272 0
M  V30 117 C 0.5857 6.4854 0.7989 0
M  V30 118 C -0.7761 6.5856 0.9769 0
M  V30 119 C -1.6321 5.7067 0.3147 0
M  V30 120 N -3.0278 5.8274 0.5141 0
M  V30 121 C -3.4415 6.1298 1.8294 0
M  V30 122 C -3.0650 5.2844 2.8760 0
M  V30 123 C -3.4040 5.5975 4.1763 0
M  V30 124 C -4.0456 6.8065 4.4525 0
M  V30 125 C -4.4374 7.6448 3.4084 0
M  V30 126 C -4.1706 7.2891 2.1022 0
M  V30 127 C -3.8960 5.9701 -0.5447 0
M  V30 128 C -5.2668 5.7256 -0.3592 0
M  V30 129 C -6.1578 5.8806 -1.3906 0
M  V30 130 C -5.7180 6.2757 -2.6674 0
M  V30 131 C -4.3446 6.4675 -2.8582 0
M  V30 132 C -3.4497 6.3201 -1.8278 0
M  V30 133 C -1.1067 4.7196 -0.5185 0
M  V30 134 C 0.2629 4.6086 -0.6854 0
M  V30 135 C 2.3759 6.1823 -2.4264 0
M  V30 136 C 2.9720 6.5297 -3.6106 0
M  V30 137 H 6.1216 5.4910 -2.9735 0
M  V30 138 H 5.0676 4.8524 -0.8470 0
M  V30 139 H 4.7876 6.7970 0.5184 0
M  V30 140 H 5.5288 7.1964 2.8130 0
M  V30 141 H 2.4916 4.5817 4.2848 0
M  V30 142 H 1.8061 4.0787 1.9808 0
M  V30 143 H 1.2427 7.1881 1.2844 0
M  V30 144 H -1.1815 7.3624 1.6039 0
M  V30 145 H -2.5047 4.3885 2.6630 0
M  V30 146 H -3.1411 4.9515 4.9985 0
M  V30 147 H -4.9696 8.5582 3.6263 0
M  V30 148 H -4.4832 7.9360 1.2973 0
M  V30 149 H -5.6185 5.4005 0.6064 0
M  V30 150 H -7.1961 5.6384 -1.2281 0
M  V30 151 H -4.0068 6.7838 -3.8277 0
M  V30 152 H -2.4044 6.5163 -1.9995 0
M  V30 153 H -1.7738 4.0410 -1.0237 0
M  V30 154 H 0.6755 3.8352 -1.3123 0
M  V30 155 H 1.3222 6.3676 -2.2996 0
M  V30 156 H 2.3629 6.9343 -4.4016 0
M  V30 157 C -6.3294 4.3044 4.7952 0
M  V30 158 C -6.0201 3.1693 5.5573 0
M  V30 159 C -5.8663 1.9400 4.9620 0
M  V30 160 C -5.9856 1.7993 3.5680 0
M  V30 161 N -5.8424 0.5731 2.9660 0
M  V30 162 C -6.1709 -0.6487 3.5929 0
M  V30 163 C -7.3471 -0.8056 4.3271 0
M  V30 164 C -7.7561 -2.0683 4.7085 0
M  V30 165 C -6.9620 -3.1793 4.4227 0
M  V30 166 C -5.7410 -3.0127 3.7689 0
M  V30 167 C -5.3623 -1.7601 3.3345 0
M  V30 168 C -5.7522 0.4635 1.5507 0
M  V30 169 C -6.7307 -0.2663 0.8772 0
M  V30 170 C -6.6535 -0.4220 -0.4885 0
M  V30 171 C -5.5995 0.1556 -1.1935 0
M  V30 172 N -5.5095 -0.0744 -2.5960 0
M  V30 173 C -5.6379 -1.4112 -2.9762 0
M  V30 174 C -5.0607 -2.3922 -2.1585 0
M  V30 175 C -5.3147 -3.7250 -2.3839 0
M  V30 176 C -6.0927 -4.1167 -3.4764 0
M  V30 177 C -6.6008 -3.1453 -4.3408 0
M  V30 178 C -6.3956 -1.8080 -4.0828 0
M  V30 179 C -5.6706 0.9776 -3.4747 0
M  V30 180 C -5.2148 0.8806 -4.7984 0
M  V30 181 C -5.4293 1.9047 -5.6882 0
M  V30 182 C -6.0812 3.0826 -5.2853 0
M  V30 183 C -6.4729 3.2004 -3.9478 0
M  V30 184 C -6.2729 2.1732 -3.0581 0
M  V30 185 C -4.6298 0.9000 -0.5280 0
M  V30 186 C -4.7026 1.0488 0.8459 0
M  V30 187 C -6.2043 2.9545 2.7968 0
M  V30 188 C -6.3890 4.1721 3.3985 0
M  V30 189 H -5.9528 3.2753 6.6281 0
M  V30 190 H -5.6559 1.0728 5.5669 0
M  V30 191 H -7.9737 0.0455 4.5436 0
M  V30 192 H -8.6893 -2.1995 5.2339 0
M  V30 193 H -5.1478 -3.8840 3.5476 0
M  V30 194 H -4.4489 -1.6345 2.7751 0
M  V30 195 H -7.5555 -0.6953 1.4216 0
M  V30 196 H -7.4126 -0.9766 -1.0154 0
M  V30 197 H -4.4351 -2.0998 -1.3304 0
M  V30 198 H -4.8870 -4.4787 -1.7444 0
M  V30 199 H -7.2371 -3.4488 -5.1557 0
M  V30 200 H -6.8759 -1.0711 -4.7063 0
M  V30 201 H -4.6864 -0.0042 -5.1161 0
M  V30 202 H -5.0474 1.8233 -6.6935 0
M  V30 203 H -7.0029 4.0844 -3.6436 0
M  V30 204 H -6.6286 2.2710 -2.0458 0
M  V30 205 H -3.8186 1.3349 -1.0873 0
M  V30 206 H -3.9444 1.5988 1.3786 0
M  V30 207 H -6.2681 2.8845 1.7236 0
M  V30 208 H -6.5486 5.0461 2.7889 0
M  V30 209 C -4.0635 -4.2909 -6.3589 0
M  V30 210 C -2.9259 -5.0047 -5.9596 0
M  V30 211 C -1.7154 -4.3710 -5.8101 0
M  V30 212 C -1.5976 -2.9866 -6.0264 0
M  V30 213 N -0.3784 -2.3663 -5.8677 0
M  V30 214 C 0.8324 -3.0442 -6.1284 0
M  V30 215 C 0.9983 -3.8120 -7.2823 0
M  V30 216 C 2.2518 -4.2789 -7.6221 0
M  V30 217 C 3.3378 -4.0435 -6.7779 0
M  V30 218 C 3.1548 -3.3577 -5.5780 0
M  V30 219 C 1.9150 -2.8361 -5.2695 0
M  V30 220 C -0.2458 -0.9580 -5.7937 0
M  V30 221 C 0.6582 -0.3237 -6.6466 0
M  V30 222 C 0.8226 1.0420 -6.5944 0
M  V30 223 C 0.0756 1.8019 -5.6958 0
M  V30 224 N 0.2368 3.2057 -5.6754 0
M  V30 225 C 1.5339 3.6923 -5.9268 0
M  V30 226 C 2.5958 3.2637 -5.1262 0
M  V30 227 C 3.8836 3.6633 -5.4146 0
M  V30 228 C 4.1336 4.4268 -6.5574 0
M  V30 229 C 3.0719 4.8799 -7.3415 0
M  V30 230 C 1.7772 4.5461 -7.0054 0
M  V30 231 C -0.8504 4.0485 -5.7981 0
M  V30 232 C -0.7446 5.3792 -5.3658 0
M  V30 233 C -1.8036 6.2437 -5.4921 0
M  V30 234 C -3.0210 5.8092 -6.0425 0
M  V30 235 C -3.1274 4.4767 -6.4525 0
M  V30 236 C -2.0692 3.6095 -6.3313 0
M  V30 237 C -0.8148 1.1703 -4.8271 0
M  V30 238 C -0.9709 -0.2031 -4.8714 0
M  V30 239 C -2.7513 -2.2644 -6.3711 0
M  V30 240 C -3.9519 -2.9056 -6.5558 0
M  V30 241 H -3.0152 -6.0717 -5.8197 0
M  V30 242 H -0.8468 -4.9418 -5.5249 0
M  V30 243 H 0.1647 -3.9909 -7.9431 0
M  V30 244 H 2.3965 -4.8316 -8.5374 0
M  V30 245 H 4.0078 -3.1908 -4.9419 0
M  V30 246 H 1.7803 -2.2531 -4.3722 0
M  V30 247 H 1.2111 -0.8963 -7.3726 0
M  V30 248 H 1.5034 1.5261 -7.2752 0
M  V30 249 H 2.4031 2.6145 -4.2875 0
M  V30 250 H 4.7179 3.3548 -4.8055 0
M  V30 251 H 3.2679 5.5091 -8.1962 0
M  V30 252 H 0.9593 4.9021 -7.6123 0
M  V30 253 H 0.1782 5.7173 -4.9227 0
M  V30 254 H -1.7180 7.2505 -5.1137 0
M  V30 255 H -4.0343 4.1617 -6.9344 0
M  V30 256 H -2.1613 2.5991 -6.6938 0
M  V30 257 H -1.3746 1.7607 -4.1205 0
M  V30 258 H -1.6423 -0.6967 -4.1874 0
M  V30 259 H -2.6884 -1.2014 -6.5377 0
M  V30 260 H -4.8255 -2.3315 -6.8181 0
M  V30 261 C 5.7727 -5.9188 3.1797 0
M  V30 262 C 5.9550 -5.2109 1.9801 0
M  V30 263 C 5.0151 -5.2758 0.9800 0
M  V30 264 C 3.8615 -6.0601 1.1350 0
M  V30 265 N 2.9227 -6.1405 0.1226 0
M  V30 266 C 3.2664 -6.1776 -1.2249 0
M  V30 267 C 4.4888 -6.7002 -1.6672 0
M  V30 268 C 4.7446 -6.8190 -3.0154 0
M  V30 269 C 3.7719 -6.4605 -3.9560 0
M  V30 270 C 2.5708 -5.8891 -3.5166 0
M  V30 271 C 2.3355 -5.7238 -2.1731 0
M  V30 272 C 1.5664 -6.4170 0.4275 0
M  V30 273 C 0.9296 -7.4737 -0.2233 0
M  V30 274 C -0.4199 -7.6777 -0.0437 0
M  V30 275 C -1.1451 -6.8316 0.7942 0
M  V30 276 N -2.5526 -6.9751 0.8474 0
M  V30 277 C -3.1593 -7.1203 -0.4136 0
M  V30 278 C -2.8582 -6.1811 -1.4059 0
M  V30 279 C -3.3455 -6.3396 -2.6861 0
M  V30 280 C -4.0769 -7.4832 -3.0091 0
M  V30 281 C -4.3904 -8.4147 -2.0171 0
M  V30 282 C -3.9699 -8.2143 -0.7176 0
M  V30 283 C -3.2280 -7.1082 2.0370 0
M  V30 284 C -4.5889 -6.7708 2.1264 0
M  V30 285 C -5.2306 -6.7837 3.3419 0
M  V30 286 C -4.5584 -7.1904 4.5028 0
M  V30 287 C -3.2103 -7.5705 4.4050 0
M  V30 288 C -2.5512 -7.5011 3.2021 0
M  V30 289 C -0.4988 -5.8127 1.4918 0
M  V30 290 C 0.8560 -5.6061 1.3111 0
M  V30 291 C 3.6535 -6.7255 2.3507 0
M  V30 292 C 4.5936 -6.6549 3.3497 0
M  V30 293 H 6.8091 -4.5651 1.8613 0
M  V30 294 H 5.1572 -4.7051 0.0766 0
M  V30 295 H 5.2155 -7.0582 -0.9560 0
M  V30 296 H 5.6653 -7.2617 -3.3602 0
M  V30 297 H 1.8594 -5.5312 -4.2418 0
M  V30 298 H 1.4238 -5.2515 -1.8448 0
M  V30 299 H 1.4930 -8.1291 -0.8674 0
M  V30 300 H -0.9159 -8.4910 -0.5477 0
M  V30 301 H -2.2449 -5.3272 -1.1635 0
M  V30 302 H -3.1377 -5.6164 -3.4585 0
M  V30 303 H -4.9804 -9.2830 -2.2667 0
M  V30 304 H -4.2235 -8.9334 0.0454 0
M  V30 305 H -5.1243 -6.4738 1.2397 0
M  V30 306 H -6.2686 -6.5005 3.4204 0
M  V30 307 H -2.6683 -7.8596 5.2906 0
M  V30 308 H -1.5089 -7.7714 3.1519 0
M  V30 309 H -1.0706 -5.1641 2.1347 0
M  V30 310 H 1.3591 -4.7989 1.8180 0
M  V30 311 H 2.7719 -7.3298 2.4896 0
M  V30 312 H 4.4596 -7.2131 4.2603 0
M  V30 313 Zn 6.0681 6.4918 6.0858 0 CHG=2
M  V30 314 C 9.1830 6.2127 9.8294 0
M  V30 315 C 7.9450 5.5913 9.8158 0
M  V30 316 C 7.1637 5.6726 8.6636 0
M  V30 317 H 7.5908 5.0539 10.6815 0
M  V30 318 N 7.5701 6.3349 7.5686 0
M  V30 319 C 5.8727 5.0374 8.5795 0
M  V30 320 C 8.7595 6.9132 7.5850 0
M  V30 321 C 9.6019 6.8825 8.6882 0
M  V30 322 H 9.0639 7.4295 6.6878 0
M  V30 323 H 10.5597 7.3763 8.6564 0
M  V30 324 H 9.8097 6.1770 10.7072 0
M  V30 325 N 5.2362 5.0076 7.4676 0
M  V30 326 H 5.4847 4.5682 9.4790 0
M  V30 327 C 2.7511 8.6908 8.8975 0
M  V30 328 C 2.4543 8.0357 7.7138 0
M  V30 329 C 3.4989 7.5022 6.9614 0
M  V30 330 H 1.4348 7.9449 7.3758 0
M  V30 331 N 4.7803 7.5990 7.3544 0
M  V30 332 C 3.2897 6.8629 5.6861 0
M  V30 333 C 5.0587 8.2408 8.4773 0
M  V30 334 C 4.0794 8.8007 9.2851 0
M  V30 335 H 6.1012 8.3147 8.7446 0
M  V30 336 H 4.3586 9.3128 10.1919 0
M  V30 337 H 1.9718 9.1150 9.5110 0
M  V30 338 N 4.2878 6.4531 4.9874 0
M  V30 339 H 2.2724 6.8116 5.3055 0
M  V30 340 C 8.5118 10.2295 4.2339 0
M  V30 341 C 8.7101 8.9102 3.8640 0
M  V30 342 C 7.8741 7.9265 4.3971 0
M  V30 343 H 9.5031 8.6437 3.1830 0
M  V30 344 N 6.8802 8.2277 5.2527 0
M  V30 345 C 8.0115 6.5362 4.0410 0
M  V30 346 C 6.6873 9.4925 5.5886 0
M  V30 347 C 7.4749 10.5292 5.1082 0
M  V30 348 H 5.8701 9.6923 6.2637 0
M  V30 349 H 7.2839 11.5458 5.4113 0
M  V30 350 H 9.1471 11.0121 3.8484 0
M  V30 351 N 7.2693 5.6396 4.5948 0
M  V30 352 H 8.7619 6.2937 3.2950 0
M  V30 353 Zn 6.3234 -6.0859 6.3088 0 CHG=2
M  V30 354 C 6.3743 -10.9106 6.7600 0
M  V30 355 C 5.2460 -10.1359 6.9555 0
M  V30 356 C 5.3162 -8.7605 6.7115 0
M  V30 357 H 4.3258 -10.5839 7.2966 0
M  V30 358 N 6.4509 -8.1748 6.2910 0
M  V30 359 C 4.1655 -7.9129 6.8788 0
M  V30 360 C 7.5214 -8.9265 6.0904 0
M  V30 361 C 7.5363 -10.2952 6.3098 0
M  V30 362 H 8.4084 -8.4225 5.7398 0
M  V30 363 H 8.4339 -10.8666 6.1377 0
M  V30 364 H 6.3550 -11.9729 6.9495 0
M  V30 365 N 4.2211 -6.6479 6.6224 0
M  V30 366 H 3.2580 -8.4114 7.2020 0
M  V30 367 C 6.6760 -5.2893 11.1194 0
M  V30 368 C 6.7728 -4.2896 10.1669 0
M  V30 369 C 6.6174 -4.6208 8.8194 0
M  V30 370 H 6.9740 -3.2714 10.4602 0
M  V30 371 N 6.3617 -5.8771 8.4214 0
M  V30 372 C 6.7394 -3.6240 7.7885 0
M  V30 373 C 6.2620 -6.8253 9.3381 0
M  V30 374 C 6.4146 -6.5857 10.6966 0
M  V30 375 H 6.0574 -7.8244 8.9859 0
M  V30 376 H 6.3360 -7.3958 11.4035 0
M  V30 377 H 6.8028 -5.0707 12.1685 0
M  V30 378 N 6.5610 -3.9091 6.5470 0
M  V30 379 H 6.9714 -2.6147 8.1167 0
M  V30 380 C 11.1674 -5.5051 5.8348 0
M  V30 381 C 10.2697 -5.4724 4.7822 0
M  V30 382 C 8.9149 -5.6879 5.0417 0
M  V30 383 H 10.6123 -5.2894 3.7762 0
M  V30 384 N 8.4569 -5.9105 6.2850 0
M  V30 385 C 7.9407 -5.7159 3.9827 0
M  V30 386 C 9.3232 -5.9570 7.2828 0
M  V30 387 C 10.6860 -5.7608 7.1119 0
M  V30 388 H 8.9239 -6.1643 8.2632 0
M  V30 389 H 11.3516 -5.8121 7.9584 0
M  V30 390 H 12.2219 -5.3449 5.6710 0
M  V30 391 N 6.6882 -5.8960 4.2235 0
M  V30 392 H 8.3255 -5.6194 2.9719 0
M  V30 393 Zn -6.6587 -5.7151 6.3847 0 CHG=2
M  V30 394 C -9.8483 -2.6190 8.4443 0
M  V30 395 C -8.5081 -2.3374 8.2396 0
M  V30 396 C -7.6842 -3.3303 7.7101 0
M  V30 397 H -8.1049 -1.3692 8.4895 0
M  V30 398 N -8.1557 -4.5408 7.3671 0
M  V30 399 C -6.2696 -3.1315 7.5326 0
M  V30 400 C -9.4329 -4.8099 7.5880 0
M  V30 401 C -10.3179 -3.8854 8.1234 0
M  V30 402 H -9.7675 -5.8039 7.3389 0
M  V30 403 H -11.3479 -4.1578 8.2875 0
M  V30 404 H -10.5169 -1.8779 8.8538 0
M  V30 405 N -5.5227 -4.0456 7.0202 0
M  V30 406 H -5.8638 -2.1788 7.8606 0
M  V30 407 C -5.9534 -8.6486 10.1812 0
M  V30 408 C -5.3333 -8.8042 8.9536 0
M  V30 409 C -5.5623 -7.8547 7.9554 0
M  V30 410 H -4.6887 -9.6491 8.7681 0
M  V30 411 N -6.3663 -6.7958 8.1525 0
M  V30 412 C -4.9469 -7.9615 6.6577 0
M  V30 413 C -6.9449 -6.6480 9.3329 0
M  V30 414 C -6.7721 -7.5439 10.3780 0
M  V30 415 H -7.5744 -5.7813 9.4597 0
M  V30 416 H -7.2666 -7.3835 11.3224 0
M  V30 417 H -5.8034 -9.3682 10.9714 0
M  V30 418 N -5.2248 -7.1244 5.7197 0
M  V30 419 H -4.2600 -8.7894 6.5096 0
M  V30 420 C -10.5465 -8.0091 4.5738 0
M  V30 421 C -10.1752 -6.7253 4.2023 0
M  V30 422 C -8.9982 -6.1921 4.7218 0
M  V30 423 H -10.7874 -6.1502 3.5256 0
M  V30 424 N -8.2111 -6.8834 5.5635 0
M  V30 425 C -8.5369 -4.8647 4.3844 0
M  V30 426 C -8.5639 -8.1106 5.9050 0
M  V30 427 C -9.7242 -8.7171 5.4385 0
M  V30 428 H -7.9048 -8.6359 6.5789 0
M  V30 429 H -9.9777 -9.7170 5.7518 0
M  V30 430 H -11.4572 -8.4508 4.1997 0
M  V30 431 N -7.3770 -4.4757 4.7601 0
M  V30 432 H -9.1912 -4.2352 3.7876 0
M  V30 433 Zn 5.7159 -6.1457 -6.3905 0 CHG=2
M  V30 434 C 9.1456 -9.4192 -5.5126 0
M  V30 435 C 9.2075 -8.0960 -5.1020 0
M  V30 436 C 8.1102 -7.2693 -5.3378 0
M  V30 437 H 10.0886 -7.7137 -4.6109 0
M  V30 438 N 6.9990 -7.7190 -5.9466 0
M  V30 439 C 8.0753 -5.8891 -4.9020 0
M  V30 440 C 6.9405 -8.9843 -6.3248 0
M  V30 441 C 7.9890 -9.8746 -6.1304 0
M  V30 442 H 6.0264 -9.3043 -6.8009 0
M  V30 443 H 7.9040 -10.8981 -6.4580 0
M  V30 444 H 9.9805 -10.0840 -5.3533 0
M  V30 445 N 6.9893 -5.2145 -4.9853 0
M  V30 446 H 8.9772 -5.4822 -4.4506 0
M  V30 447 C 8.2202 -4.4254 -10.2588 0
M  V30 448 C 6.9666 -3.9764 -9.8744 0
M  V30 449 C 6.3889 -4.5007 -8.7200 0
M  V30 450 H 6.4464 -3.2347 -10.4595 0
M  V30 451 N 7.0053 -5.4225 -7.9632 0
M  V30 452 C 5.0837 -4.0810 -8.2679 0
M  V30 453 C 8.2024 -5.8434 -8.3361 0
M  V30 454 C 8.8516 -5.3779 -9.4726 0
M  V30 455 H 8.6758 -6.5884 -7.7158 0
M  V30 456 H 9.8246 -5.7607 -9.7355 0
M  V30 457 H 8.6957 -4.0476 -11.1507 0
M  V30 458 N 4.6294 -4.4631 -7.1358 0
M  V30 459 H 4.5185 -3.4176 -8.9181 0
M  V30 460 C 2.7486 -8.3752 -9.5621 0
M  V30 461 C 2.3964 -8.0382 -8.2661 0
M  V30 462 C 3.3571 -7.4598 -7.4364 0
M  V30 463 H 1.3993 -8.2242 -7.9005 0
M  V30 464 N 4.6062 -7.2011 -7.8642 0
M  V30 465 C 3.0926 -7.1485 -6.0552 0
M  V30 466 C 4.9396 -7.5431 -9.0981 0
M  V30 467 C 4.0486 -8.1317 -9.9845 0
M  V30 468 H 5.9566 -7.3454 -9.3988 0
M  V30 469 H 4.3708 -8.3933 -10.9795 0
M  V30 470 H 2.0345 -8.8250 -10.2342 0
M  V30 471 N 4.0320 -6.6942 -5.3012 0
M  V30 472 H 2.1043 -7.3759 -5.6660 0
M  V30 473 Zn -5.6930 6.3270 7.1661 0 CHG=2
M  V30 474 C -8.7718 5.1223 10.7363 0
M  V30 475 C -7.4904 4.6148 10.6080 0
M  V30 476 C -6.7368 4.9614 9.4844 0
M  V30 477 H -7.0782 3.9680 11.3666 0
M  V30 478 N -7.2165 5.7721 8.5259 0
M  V30 479 C -5.4021 4.4564 9.2873 0
M  V30 480 C -8.4490 6.2362 8.6469 0
M  V30 481 C -9.2654 5.9427 9.7304 0
M  V30 482 H -8.8143 6.8675 7.8524 0
M  V30 483 H -10.2624 6.3489 9.7861 0
M  V30 484 H -9.3785 4.8835 11.5963 0
M  V30 485 N -4.6903 4.8192 8.2766 0
M  V30 486 H -5.0267 3.7652 10.0373 0
M  V30 487 C -3.6256 10.0772 9.4814 0
M  V30 488 C -3.4788 9.8314 8.1244 0
M  V30 489 C -4.0173 8.6617 7.5935 0
M  V30 490 H -2.9604 10.5340 7.4912 0
M  V30 491 N -4.6663 7.7650 8.3546 0
M  V30 492 C -3.8815 8.3131 6.1972 0
M  V30 493 C -4.7928 7.9992 9.6492 0
M  V30 494 C -4.2912 9.1416 10.2606 0
M  V30 495 H -5.3152 7.2525 10.2273 0
M  V30 496 H -4.4255 9.2955 11.3192 0
M  V30 497 H -3.2310 10.9782 9.9251 0
M  V30 498 N -4.2515 7.1564 5.7931 0
M  V30 499 H -3.4094 9.0354 5.5364 0
M  V30 500 C -8.7479 9.7662 5.4854 0
M  V30 501 C -8.5128 8.5496 4.8733 0
M  V30 502 C -7.5975 7.6644 5.4500 0
M  V30 503 H -9.0348 8.2813 3.9686 0
M  V30 504 N -6.9240 7.9696 6.5727 0
M  V30 505 C -7.3514 6.3718 4.8788 0
M  V30 506 C -7.1702 9.1307 7.1606 0
M  V30 507 C -8.0665 10.0612 6.6601 0
M  V30 508 H -6.6398 9.3348 8.0768 0
M  V30 509 H -8.2292 10.9915 7.1797 0
M  V30 510 H -9.4502 10.4721 5.0694 0
M  V30 511 N -6.5624 5.5117 5.4323 0
M  V30 512 H -7.8979 6.1438 3.9693 0
M  V30 513 Zn 6.7829 6.0563 -5.8878 0 CHG=2
M  V30 514 C 10.3628 9.0363 -4.4874 0
M  V30 515 C 10.3120 7.6841 -4.1968 0
M  V30 516 C 9.1632 6.9644 -4.5335 0
M  V30 517 H 11.1476 7.1918 -3.7241 0
M  V30 518 N 8.1087 7.5418 -5.1335 0
M  V30 519 C 9.0336 5.5632 -4.2252 0
M  V30 520 C 8.1557 8.8401 -5.3825 0
M  V30 521 C 9.2563 9.6299 -5.0807 0
M  V30 522 H 7.2832 9.2829 -5.8363 0
M  V30 523 H 9.2480 10.6839 -5.3065 0
M  V30 524 H 11.2392 9.6203 -4.2517 0
M  V30 525 N 7.9987 4.8914 -4.5940 0
M  V30 526 H 9.8459 5.1090 -3.6642 0
M  V30 527 C 9.1066 4.6135 -9.9369 0
M  V30 528 C 7.7621 4.3855 -9.6881 0
M  V30 529 C 7.2424 4.7320 -8.4426 0
M  V30 530 H 7.1292 3.9508 -10.4456 0
M  V30 531 N 8.0025 5.2756 -7.4781 0
M  V30 532 C 5.8594 4.5023 -8.0949 0
M  V30 533 C 9.2866 5.4761 -7.7168 0
M  V30 534 C 9.8870 5.1637 -8.9299 0
M  V30 535 H 9.8667 5.9072 -6.9152 0
M  V30 536 H 10.9372 5.3537 -9.0828 0
M  V30 537 H 9.5404 4.3684 -10.8942 0
M  V30 538 N 5.4624 4.7036 -6.8946 0
M  V30 539 H 5.2028 4.1069 -8.8657 0
M  V30 540 C 5.0992 9.6094 -8.8066 0
M  V30 541 C 4.4984 9.1983 -7.6320 0
M  V30 542 C 5.0681 8.1463 -6.9079 0
M  V30 543 H 3.6066 9.6871 -7.2732 0
M  V30 544 N 6.1756 7.5114 -7.3296 0
M  V30 545 C 4.4941 7.7084 -5.6682 0
M  V30 546 C 6.7531 7.9256 -8.4470 0
M  V30 547 C 6.2570 8.9625 -9.2209 0
M  V30 548 H 7.6574 7.4202 -8.7459 0
M  V30 549 H 6.7677 9.2574 -10.1232 0
M  V30 550 H 4.6876 10.4191 -9.3891 0
M  V30 551 N 5.0071 6.7600 -4.9554 0
M  V30 552 H 3.6055 8.2455 -5.3528 0
M  V30 553 Zn -6.0259 -6.5883 -5.4165 0 CHG=2
M  V30 554 C -8.3254 -9.5689 -2.2862 0
M  V30 555 C -7.9002 -8.2897 -1.9685 0
M  V30 556 C -7.2995 -7.5161 -2.9597 0
M  V30 557 H -8.0345 -7.8959 -0.9740 0
M  V30 558 N -7.1083 -7.9788 -4.2067 0
M  V30 559 C -6.8799 -6.1551 -2.7344 0
M  V30 560 C -7.5281 -9.1972 -4.5065 0
M  V30 561 C -8.1410 -10.0310 -3.5823 0
M  V30 562 H -7.3719 -9.5248 -5.5225 0
M  V30 563 H -8.4658 -11.0160 -3.8768 0
M  V30 564 H -8.7950 -10.1996 -1.5475 0
M  V30 565 N -6.4188 -5.4555 -3.7065 0
M  V30 566 H -7.0277 -5.7309 -1.7450 0
M  V30 567 C -9.6084 -5.4068 -8.4307 0
M  V30 568 C -8.3620 -4.8053 -8.4278 0
M  V30 569 C -7.4372 -5.1714 -7.4467 0
M  V30 570 H -8.1056 -4.0714 -9.1756 0
M  V30 571 N -7.7277 -6.0885 -6.5056 0
M  V30 572 C -6.1317 -4.5686 -7.3705 0
M  V30 573 C -8.9258 -6.6486 -6.5076 0
M  V30 574 C -9.9007 -6.3425 -7.4461 0
M  V30 575 H -9.1248 -7.3679 -5.7285 0
M  V30 576 H -10.8644 -6.8242 -7.4091 0
M  V30 577 H -10.3430 -5.1527 -9.1794 0
M  V30 578 N -5.2596 -4.9717 -6.5089 0
M  V30 579 H -5.9230 -3.7638 -8.0688 0
M  V30 580 C -4.7691 -10.3499 -8.2485 0
M  V30 581 C -4.3339 -10.1948 -6.9415 0
M  V30 582 C -4.6822 -9.0351 -6.2511 0
M  V30 583 H -3.7390 -10.9589 -6.4662 0
M  V30 584 N -5.4226 -8.0640 -6.8100 0
M  V30 585 C -4.2599 -8.8010 -4.8907 0
M  V30 586 C -5.8191 -8.2110 -8.0629 0
M  V30 587 C -5.5207 -9.3348 -8.8232 0
M  V30 588 H -6.4015 -7.4085 -8.4886 0
M  V30 589 H -5.8750 -9.4147 -9.8383 0
M  V30 590 H -4.5288 -11.2400 -8.8093 0
M  V30 591 N -4.4791 -7.6681 -4.3364 0
M  V30 592 H -3.7372 -9.6032 -4.3773 0
M  V30 593 Zn -6.2521 6.2687 -5.8815 0 CHG=2
M  V30 594 C -11.0586 6.9958 -5.3340 0
M  V30 595 C -10.1350 7.0498 -4.3067 0
M  V30 596 C -8.8048 6.7076 -4.5703 0
M  V30 597 H -10.4344 7.3569 -3.3169 0
M  V30 598 N -8.3968 6.3249 -5.7926 0
M  V30 599 C -7.8165 6.7266 -3.5269 0
M  V30 600 C -9.2910 6.2675 -6.7658 0
M  V30 601 C -10.6287 6.5901 -6.5913 0
M  V30 602 H -8.9404 5.9499 -7.7348 0
M  V30 603 H -11.3161 6.5278 -7.4192 0
M  V30 604 H -12.0914 7.2603 -5.1667 0
M  V30 605 N -6.5805 6.4206 -3.7421 0
M  V30 606 H -8.1780 6.9939 -2.5378 0
M  V30 607 C -5.8191 11.0927 -6.6776 0
M  V30 608 C -4.7646 10.1990 -6.7162 0
M  V30 609 C -4.9939 8.8630 -6.3745 0
M  V30 610 H -3.7804 10.5259 -7.0128 0
M  V30 611 N -6.2072 8.4196 -6.0040 0
M  V30 612 C -3.9256 7.9009 -6.3995 0
M  V30 613 C -7.2073 9.2847 -5.9638 0
M  V30 614 C -7.0683 10.6262 -6.2888 0
M  V30 615 H -8.1701 8.9069 -5.6588 0
M  V30 616 H -7.9180 11.2879 -6.2410 0
M  V30 617 H -5.6784 12.1294 -6.9421 0
M  V30 618 N -4.1206 6.6531 -6.1432 0
M  V30 619 H -2.9397 8.2860 -6.6476 0
M  V30 620 C -7.0675 5.5913 -10.6591 0
M  V30 621 C -7.0086 4.5724 -9.7253 0
M  V30 622 C -6.6669 4.8819 -8.4060 0
M  V30 623 H -7.2307 3.5559 -10.0093 0
M  V30 624 N -6.3886 6.1383 -8.0184 0
M  V30 625 C -6.5796 3.8581 -7.3986 0
M  V30 626 C -6.4389 7.1038 -8.9204 0
M  V30 627 C -6.7706 6.8851 -10.2499 0
M  V30 628 H -6.2047 8.1008 -8.5824 0
M  V30 629 H -6.7985 7.7080 -10.9456 0
M  V30 630 H -7.3356 5.3898 -11.6848 0
M  V30 631 N -6.3117 4.1300 -6.1667 0
M  V30 632 H -6.7407 2.8371 -7.7359 0
M  V30 END ATOM
M  V30 BEGIN BOND
M  V30 1 2 1 2
M  V30 2 1 2 3
M  V30 3 2 3 4
M  V30 4 1 4 5
M  V30 5 1 5 6
M  V30 6 2 6 7
M  V30 7 1 7 8
M  V30 8 2 8 9
M  V30 9 1 9 10
M  V30 10 2 10 11
M  V30 11 1 5 12
M  V30 12 2 12 13
M  V30 13 1 13 14
M  V30 14 2 14 15
M  V30 15 1 15 16
M  V30 16 1 16 17
M  V30 17 2 17 18
M  V30 18 1 18 19
M  V30 19 2 19 20
M  V30 20 1 20 21
M  V30 21 2 21 22
M  V30 22 1 16 23
M  V30 23 2 23 24
M  V30 24 1 24 25
M  V30 25 2 25 26
M  V30 26 1 26 27
M  V30 27 2 27 28
M  V30 28 1 15 29
M  V30 29 2 29 30
M  V30 30 1 4 31
M  V30 31 2 31 32
M  V30 32 1 32 1
M  V30 33 1 11 6
M  V30 34 1 30 12
M  V30 35 1 22 17
M  V30 36 1 28 23
M  V30 37 1 2 33
M  V30 38 1 3 34
M  V30 39 1 7 35
M  V30 40 1 8 36
M  V30 41 1 10 37
M  V30 42 1 11 38
M  V30 43 1 13 39
M  V30 44 1 14 40
M  V30 45 1 18 41
M  V30 46 1 19 42
M  V30 47 1 21 43
M  V30 48 1 22 44
M  V30 49 1 24 45
M  V30 50 1 25 46
M  V30 51 1 27 47
M  V30 52 1 28 48
M  V30 53 1 29 49
M  V30 54 1 30 50
M  V30 55 1 31 51
M  V30 56 1 32 52
M  V30 57 2 53 54
M  V30 58 1 54 55
M  V30 59 2 55 56
M  V30 60 1 56 57
M  V30 61 1 57 58
M  V30 62 2 58 59
M  V30 63 1 59 60
M  V30 64 2 60 61
M  V30 65 1 61 62
M  V30 66 2 62 63
M  V30 67 1 57 64
M  V30 68 2 64 65
M  V30 69 1 65 66
M  V30 70 2 66 67
M  V30 71 1 67 68
M  V30 72 1 68 69
M  V30 73 2 69 70
M  V30 74 1 70 71
M  V30 75 2 71 72
M  V30 76 1 72 73
M  V30 77 2 73 74
M  V30 78 1 68 75
M  V30 79 2 75 76
M  V30 80 1 76 77
M  V30 81 2 77 78
M  V30 82 1 78 79
M  V30 83 2 79 80
M  V30 84 1 67 81
M  V30 85 2 81 82
M  V30 86 1 56 83
M  V30 87 2 83 84
M  V30 88 1 84 53
M  V30 89 1 63 58
M  V30 90 1 82 64
M  V30 91 1 74 69
M  V30 92 1 80 75
M  V30 93 1 54 85
M  V30 94 1 55 86
M  V30 95 1 59 87
M  V30 96 1 60 88
M  V30 97 1 62 89
M  V30 98 1 63 90
M  V30 99 1 65 91
M  V30 100 1 66 92
M  V30 101 1 70 93
M  V30 102 1 71 94
M  V30 103 1 73 95
M  V30 104 1 74 96
M  V30 105 1 76 97
M  V30 106 1 77 98
M  V30 107 1 79 99
M  V30 108 1 80 100
M  V30 109 1 81 101
M  V30 110 1 82 102
M  V30 111 1 83 103
M  V30 112 1 84 104
M  V30 113 2 105 106
M  V30 114 1 106 107
M  V30 115 2 107 108
M  V30 116 1 108 109
M  V30 117 1 109 110
M  V30 118 2 110 111
M  V30 119 1 111 112
M  V30 120 2 112 113
M  V30 121 1 113 114
M  V30 122 2 114 115
M  V30 123 1 109 116
M  V30 124 2 116 117
M  V30 125 1 117 118
M  V30 126 2 118 119
M  V30 127 1 119 120
M  V30 128 1 120 121
M  V30 129 2 121 122
M  V30 130 1 122 123
M  V30 131 2 123 124
M  V30 132 1 124 125
M  V30 133 2 125 126
M  V30 134 1 120 127
M  V30 135 2 127 128
M  V30 136 1 128 129
M  V30 137 2 129 130
M  V30 138 1 130 131
M  V30 139 2 131 132
M  V30 140 1 119 133
M  V30 141 2 133 134
M  V30 142 1 108 135
M  V30 143 2 135 136
M  V30 144 1 136 105
M  V30 145 1 115 110
M  V30 146 1 134 116
M  V30 147 1 126 121
M  V30 148 1 132 127
M  V30 149 1 106 137
M  V30 150 1 107 138
M  V30 151 1 111 139
M  V30 152 1 112 140
M  V30 153 1 114 141
M  V30 154 1 115 142
M  V30 155 1 117 143
M  V30 156 1 118 144
M  V30 157 1 122 145
M  V30 158 1 123 146
M  V30 159 1 125 147
M  V30 160 1 126 148
M  V30 161 1 128 149
M  V30 162 1 129 150
M  V30 163 1 131 151
M  V30 164 1 132 152
M  V30 165 1 133 153
M  V30 166 1 134 154
M  V30 167 1 135 155
M  V30 168 1 136 156
M  V30 169 2 157 158
M  V30 170 1 158 159
M  V30 171 2 159 160
M  V30 172 1 160 161
M  V30 173 1 161 162
M  V30 174 2 162 163
M  V30 175 1 163 164
M  V30 176 2 164 165
M  V30 177 1 165 166
M  V30 178 2 166 167
M  V30 179 1 161 168
M  V30 180 2 168 169
M  V30 181 1 169 170
M  V30 182 2 170 171
M  V30 183 1 171 172
M  V30 184 1 172 173
M  V30 185 2 173 174
M  V30 186 1 174 175
M  V30 187 2 175 176
M  V30 188 1 176 177
M  V30 189 2 177 178
M  V30 190 1 172 179
M  V30 191 2 179 180
M  V30 192 1 180 181
M  V30 193 2 181 182
M  V30 194 1 182 183
M  V30 195 2 183 184
M  V30 196 1 171 185
M  V30 197 2 185 186
M  V30 198 1 160 187
M  V30 199 2 187 188
M  V30 200 1 188 157
M  V30 201 1 167 162
M  V30 202 1 186 168
M  V30 203 1 178 173
M  V30 204 1 184 179
M  V30 205 1 158 189
M  V30 206 1 159 190
M  V30 207 1 163 191
M  V30 208 1 164 192
M  V30 209 1 166 193
M  V30 210 1 167 194
M  V30 211 1 169 195
M  V30 212 1 170 196
M  V30 213 1 174 197
M  V30 214 1 175 198
M  V30 215 1 177 199
M  V30 216 1 178 200
M  V30 217 1 180 201
M  V30 218 1 181 202
M  V30 219 1 183 203
M  V30 220 1 184 204
M  V30 221 1 185 205
M  V30 222 1 186 206
M  V30 223 1 187 207
M  V30 224 1 188 208
M  V30 225 2 209 210
M  V30 226 1 210 211
M  V30 227 2 211 212
M  V30 228 1 212 213
M  V30 229 1 213 214
M  V30 230 2 214 215
M  V30 231 1 215 216
M  V30 232 2 216 217
M  V30 233 1 217 218
M  V30 234 2 218 219
M  V30 235 1 213 220
M  V30 236 2 220 221
M  V30 237 1 221 222
M  V30 238 2 222 223
M  V30 239 1 223 224
M  V30 240 1 224 225
M  V30 241 2 225 226
M  V30 242 1 226 227
M  V30 243 2 227 228
M  V30 244 1 228 229
M  V30 245 2 229 230
M  V30 246 1 224 231
M  V30 247 2 231 232
M  V30 248 1 232 233
M  V30 249 2 233 234
M  V30 250 1 234 235
M  V30 251 2 235 236
M  V30 252 1 223 237
M  V30 253 2 237 238
M  V30 254 1 212 239
M  V30 255 2 239 240
M  V30 256 1 240 209
M  V30 257 1 219 214
M  V30 258 1 238 220
M  V30 259 1 230 225
M  V30 260 1 236 231
M  V30 261 1 210 241
M  V30 262 1 211 242
M  V30 263 1 215 243
M  V30 264 1 216 244
M  V30 265 1 218 245
M  V30 266 1 219 246
M  V30 267 1 221 247
M  V30 268 1 222 248
M  V30 269 1 226 249
M  V30 270 1 227 250
M  V30 271 1 229 251
M  V30 272 1 230 252
M  V30 273 1 232 253
M  V30 274 1 233 254
M  V30 275 1 235 255
M  V30 276 1 236 256
M  V30 277 1 237 257
M  V30 278 1 238 258
M  V30 279 1 239 259
M  V30 280 1 240 260
M  V30 281 2 261 262
M  V30 282 1 262 263
M  V30 283 2 263 264
M  V30 284 1 264 265
M  V30 285 1 265 266
M  V30 286 2 266 267
M  V30 287 1 267 268
M  V30 288 2 268 269
M  V30 289 1 269 270
M  V30 290 2 270 271
M  V30 291 1 265 272
M  V30 292 2 272 273
M  V30 293 1 273 274
M  V30 294 2 274 275
M  V30 295 1 275 276
M  V30 296 1 276 277
M  V30 297 2 277 278
M  V30 298 1 278 279
M  V30 299 2 279 280
M  V30 300 1 280 281
M  V30 301 2 281 282
M  V30 302 1 276 283
M  V30 303 2 283 284
M  V30 304 1 284 285
M  V30 305 2 285 286
M  V30 306 1 286 287
M  V30 307 2 287 288
M  V30 308 1 275 289
M  V30 309 2 289 290
M  V30 310 1 264 291
M  V30 311 2 291 292
M  V30 312 1 292 261
M  V30 313 1 271 266
M  V30 314 1 290 272
M  V30 315 1 282 277
M  V30 316 1 288 283
M  V30 317 1 262 293
M  V30 318 1 263 294
M  V30 319 1 267 295
M  V30 320 1 268 296
M  V30 321 1 270 297
M  V30 322 1 271 298
M  V30 323 1 273 299
M  V30 324 1 274 300
M  V30 325 1 278 301
M  V30 326 1 279 302
M  V30 327 1 281 303
M  V30 328 1 282 304
M  V30 329 1 284 305
M  V30 330 1 285 306
M  V30 331 1 287 307
M  V30 332 1 288 308
M  V30 333 1 289 309
M  V30 334 1 290 310
M  V30 335 1 291 311
M  V30 336 1 292 312
M  V30 337 1 314 324
M  V30 338 2 314 321
M  V30 339 1 315 314
M  V30 340 2 316 315
M  V30 341 1 316 318
M  V30 342 1 317 315
M  V30 343 2 318 320
M  V30 344 1 319 316
M  V30 345 1 320 321
M  V30 346 1 320 322
M  V30 347 1 321 323
M  V30 348 2 325 319
M  V30 349 1 326 319
M  V30 350 1 327 337
M  V30 351 2 327 334
M  V30 352 1 328 327
M  V30 353 2 329 328
M  V30 354 1 329 331
M  V30 355 1 330 328
M  V30 356 2 331 333
M  V30 357 1 332 329
M  V30 358 1 333 334
M  V30 359 1 333 335
M  V30 360 1 334 336
M  V30 361 2 338 332
M  V30 362 1 339 332
M  V30 363 1 340 350
M  V30 364 2 340 347
M  V30 365 1 341 340
M  V30 366 2 342 341
M  V30 367 1 342 344
M  V30 368 1 343 341
M  V30 369 2 344 346
M  V30 370 1 345 342
M  V30 371 1 346 347
M  V30 372 1 346 348
M  V30 373 1 347 349
M  V30 374 2 351 345
M  V30 375 1 352 345
M  V30 376 9 325 313
M  V30 377 9 318 313
M  V30 378 9 338 313
M  V30 379 9 331 313
M  V30 380 9 351 313
M  V30 381 9 344 313
M  V30 382 1 354 364
M  V30 383 2 354 361
M  V30 384 1 355 354
M  V30 385 2 356 355
M  V30 386 1 356 358
M  V30 387 1 357 355
M  V30 388 2 358 360
M  V30 389 1 359 356
M  V30 390 1 360 361
M  V30 391 1 360 362
M  V30 392 1 361 363
M  V30 393 2 365 359
M  V30 394 1 366 359
M  V30 395 1 367 377
M  V30 396 2 367 374
M  V30 397 1 368 367
M  V30 398 2 369 368
M  V30 399 1 369 371
M  V30 400 1 370 368
M  V30 401 2 371 373
M  V30 402 1 372 369
M  V30 403 1 373 374
M  V30 404 1 373 375
M  V30 405 1 374 376
M  V30 406 2 378 372
M  V30 407 1 379 372
M  V30 408 1 380 390
M  V30 409 2 380 387
M  V30 410 1 381 380
M  V30 411 2 382 381
M  V30 412 1 382 384
M  V30 413 1 383 381
M  V30 414 2 384 386
M  V30 415 1 385 382
M  V30 416 1 386 387
M  V30 417 1 386 388
M  V30 418 1 387 389
M  V30 419 2 391 385
M  V30 420 1 392 385
M  V30 421 9 365 353
M  V30 422 9 358 353
M  V30 423 9 378 353
M  V30 424 9 371 353
M  V30 425 9 391 353
M  V30 426 9 384 353
M  V30 427 1 394 404
M  V30 428 2 394 401
M  V30 429 1 395 394
M  V30 430 2 396 395
M  V30 431 1 396 398
M  V30 432 1 397 395
M  V30 433 2 398 400
M  V30 434 1 399 396
M  V30 435 1 400 401
M  V30 436 1 400 402
M  V30 437 1 401 403
M  V30 438 2 405 399
M  V30 439 1 406 399
M  V30 440 1 407 417
M  V30 441 2 407 414
M  V30 442 1 408 407
M  V30 443 2 409 408
M  V30 444 1 409 411
M  V30 445 1 410 408
M  V30 446 2 411 413
M  V30 447 1 412 409
M  V30 448 1 413 414
M  V30 449 1 413 415
M  V30 450 1 414 416
M  V30 451 2 418 412
M  V30 452 1 419 412
M  V30 453 1 420 430
M  V30 454 2 420 427
M  V30 455 1 421 420
M  V30 456 2 422 421
M  V30 457 1 422 424
M  V30 458 1 423 421
M  V30 459 2 424 426
M  V30 460 1 425 422
M  V30 461 1 426 427
M  V30 462 1 426 428
M  V30 463 1 427 429
M  V30 464 2 431 425
M  V30 465 1 432 425
M  V30 466 9 405 393
M  V30 467 9 398 393
M  V30 468 9 418 393
M  V30 469 9 411 393
M  V30 470 9 431 393
M  V30 471 9 424 393
M  V30 472 1 434 444
M  V30 473 2 434 441
M  V30 474 1 435 434
M  V30 475 2 436 435
M  V30 476 1 436 438
M  V30 477 1 437 435
M  V30 478 2 438 440
M  V30 479 1 439 436
M  V30 480 1 440 441
M  V30 481 1 440 442
M  V30 482 1 441 443
M  V30 483 2 445 439
M  V30 484 1 446 439
M  V30 485 1 447 457
M  V30 486 2 447 454
M  V30 487 1 448 447
M  V30 488 2 449 448
M  V30 489 1 449 451
M  V30 490 1 450 448
M  V30 491 2 451 453
M  V30 492 1 452 449
M  V30 493 1 453 454
M  V30 494 1 453 455
M  V30 495 1 454 456
M  V30 496 2 458 452
M  V30 497 1 459 452
M  V30 498 1 460 470
M  V30 499 2 460 467
M  V30 500 1 461 460
M  V30 501 2 462 461
M  V30 502 1 462 464
M  V30 503 1 463 461
M  V30 504 2 464 466
M  V30 505 1 465 462
M  V30 506 1 466 467
M  V30 507 1 466 468
M  V30 508 1 467 469
M  V30 509 2 471 465
M  V30 510 1 472 465
M  V30 511 9 445 433
M  V30 512 9 438 433
M  V30 513 9 458 433
M  V30 514 9 451 433
M  V30 515 9 471 433
M  V30 516 9 464 433
M  V30 517 1 474 484
M  V30 518 2 474 481
M  V30 519 1 475 474
M  V30 520 2 476 475
M  V30 521 1 476 478
M  V30 522 1 477 475
M  V30 523 2 478 480
M  V30 524 1 479 476
M  V30 525 1 480 481
M  V30 526 1 480 482
M  V30 527 1 481 483
M  V30 528 2 485 479
M  V30 529 1 486 479
M  V30 530 1 487 497
M  V30 531 2 487 494
M  V30 532 1 488 487
M  V30 533 2 489 488
M  V30 534 1 489 491
M  V30 535 1 490 488
M  V30 536 2 491 493
M  V30 537 1 492 489
M  V30 538 1 493 494
M  V30 539 1 493 495
M  V30 540 1 494 496
M  V30 541 2 498 492
M  V30 542 1 499 492
M  V30 543 1 500 510
M  V30 544 2 500 507
M  V30 545 1 501 500
M  V30 546 2 502 501
M  V30 547 1 502 504
M  V30 548 1 503 501
M  V30 549 2 504 506
M  V30 550 1 505 502
M  V30 551 1 506 507
M  V30 552 1 506 508
M  V30 553 1 507 509
M  V30 554 2 511 505
M  V30 555 1 512 505
M  V30 556 9 485 473
M  V30 557 9 478 473
M  V30 558 9 511 473
M  V30 559 9 504 473
M  V30 560 9 498 473
M  V30 561 9 491 473
M  V30 562 1 514 524
M  V30 563 2 514 521
M  V30 564 1 515 514
M  V30 565 2 516 515
M  V30 566 1 516 518
M  V30 567 1 517 515
M  V30 568 2 518 520
M  V30 569 1 519 516
M  V30 570 1 520 521
M  V30 571 1 520 522
M  V30 572 1 521 523
M  V30 573 2 525 519
M  V30 574 1 526 519
M  V30 575 1 527 537
M  V30 576 2 527 534
M  V30 577 1 528 527
M  V30 578 2 529 528
M  V30 579 1 529 531
M  V30 580 1 530 528
M  V30 581 2 531 533
M  V30 582 1 532 529
M  V30 583 1 533 534
M  V30 584 1 533 535
M  V30 585 1 534 536
M  V30 586 2 538 532
M  V30 587 1 539 532
M  V30 588 1 540 550
M  V30 589 2 540 547
M  V30 590 1 541 540
M  V30 591 2 542 541
M  V30 592 1 542 544
M  V30 593 1 543 541
M  V30 594 2 544 546
M  V30 595 1 545 542
M  V30 596 1 546 547
M  V30 597 1 546 548
M  V30 598 1 547 549
M  V30 599 2 551 545
M  V30 600 1 552 545
M  V30 601 9 525 513
M  V30 602 9 518 513
M  V30 603 9 551 513
M  V30 604 9 544 513
M  V30 605 9 538 513
M  V30 606 9 531 513
M  V30 607 1 554 564
M  V30 608 2 554 561
M  V30 609 1 555 554
M  V30 610 2 556 555
M  V30 611 1 556 558
M  V30 612 1 557 555
M  V30 613 2 558 560
M  V30 614 1 559 556
M  V30 615 1 560 561
M  V30 616 1 560 562
M  V30 617 1 561 563
M  V30 618 2 565 559
M  V30 619 1 566 559
M  V30 620 1 567 577
M  V30 621 2 567 574
M  V30 622 1 568 567
M  V30 623 2 569 568
M  V30 624 1 569 571
M  V30 625 1 570 568
M  V30 626 2 571 573
M  V30 627 1 572 569
M  V30 628 1 573 574
M  V30 629 1 573 575
M  V30 630 1 574 576
M  V30 631 2 578 572
M  V30 632 1 579 572
M  V30 633 1 580 590
M  V30 634 2 580 587
M  V30 635 1 581 580
M  V30 636 2 582 581
M  V30 637 1 582 584
M  V30 638 1 583 581
M  V30 639 2 584 586
M  V30 640 1 585 582
M  V30 641 1 586 587
M  V30 642 1 586 588
M  V30 643 1 587 589
M  V30 644 2 591 585
M  V30 645 1 592 585
M  V30 646 9 565 553
M  V30 647 9 558 553
M  V30 648 9 591 553
M  V30 649 9 584 553
M  V30 650 9 578 553
M  V30 651 9 571 553
M  V30 652 1 594 604
M  V30 653 2 594 601
M  V30 654 1 595 594
M  V30 655 2 596 595
M  V30 656 1 596 598
M  V30 657 1 597 595
M  V30 658 2 598 600
M  V30 659 1 599 596
M  V30 660 1 600 601
M  V30 661 1 600 602
M  V30 662 1 601 603
M  V30 663 2 605 599
M  V30 664 1 606 599
M  V30 665 1 607 617
M  V30 666 2 607 614
M  V30 667 1 608 607
M  V30 668 2 609 608
M  V30 669 1 609 611
M  V30 670 1 610 608
M  V30 671 2 611 613
M  V30 672 1 612 609
M  V30 673 1 613 614
M  V30 674 1 613 615
M  V30 675 1 614 616
M  V30 676 2 618 612
M  V30 677 1 619 612
M  V30 678 1 620 630
M  V30 679 2 620 627
M  V30 680 1 621 620
M  V30 681 2 622 621
M  V30 682 1 622 624
M  V30 683 1 623 621
M  V30 684 2 624 626
M  V30 685 1 625 622
M  V30 686 1 626 627
M  V30 687 1 626 628
M  V30 688 1 627 629
M  V30 689 2 631 625
M  V30 690 1 632 625
M  V30 691 9 605 593
M  V30 692 9 598 593
M  V30 693 9 631 593
M  V30 694 9 624 593
M  V30 695 9 618 593
M  V30 696 9 611 593
M  V30 697 1 9 325
M  V30 698 1 20 365
M  V30 699 1 26 405
M  V30 700 1 1 485
M  V30 701 1 53 525
M  V30 702 1 61 445
M  V30 703 1 72 378
M  V30 704 1 78 351
M  V30 705 1 105 551
M  V30 706 1 113 338
M  V30 707 1 124 498
M  V30 708 1 130 605
M  V30 709 1 157 511
M  V30 710 1 165 431
M  V30 711 1 176 565
M  V30 712 1 182 631
M  V30 713 1 217 458
M  V30 714 1 228 538
M  V30 715 1 234 618
M  V30 716 1 209 578
M  V30 717 1 261 391
M  V30 718 1 269 471
M  V30 719 1 280 591
M  V30 720 1 286 418
M  V30 END BOND
M  V30 END CTAB
M  END

$$$$
