
     RDKit          3D

  0  0  0  0  0  0  0  0  0  0999 V3000
M  V30 BEGIN CTAB
M  V30 COUNTS 608 696 0 0 0
M  V30 BEGIN ATOM
M  V30 1 C -4.4698 -4.9664 4.9100 0
M  V30 2 C -4.3543 -3.8583 4.0696 0
M  V30 3 C -3.2302 -3.0621 4.1369 0
M  V30 4 C -2.2305 -3.3083 5.0842 0
M  V30 5 C -1.2233 -2.2737 5.3727 0
M  V30 6 C -1.6527 -0.9412 5.3266 0
M  V30 7 C -0.8461 0.1277 5.6936 0
M  V30 8 C -1.4064 1.4928 5.7261 0
M  V30 9 C -1.4272 2.1967 6.9304 0
M  V30 10 C -2.0567 3.4226 7.0183 0
M  V30 11 C -2.6888 3.9663 5.8973 0
M  V30 12 C -2.6382 3.2850 4.6811 0
M  V30 13 C -1.9946 2.0644 4.5981 0
M  V30 14 C 0.4563 -0.1353 6.1244 0
M  V30 15 C 1.4660 0.9005 6.4128 0
M  V30 16 C 1.9785 1.6655 5.3659 0
M  V30 17 C 3.0362 2.5249 5.5839 0
M  V30 18 C 3.6053 2.6176 6.8546 0
M  V30 19 C 3.0789 1.8726 7.9122 0
M  V30 20 C 2.0170 1.0207 7.6867 0
M  V30 21 C 0.8823 -1.4490 6.1908 0
M  V30 22 C 0.0767 -2.5268 5.8205 0
M  V30 23 C 0.8595 -3.7789 5.8966 0
M  V30 24 C 1.4062 -4.1151 7.1430 0
M  V30 25 C 2.6083 -4.7761 7.2257 0
M  V30 26 C 3.2948 -5.1182 6.0482 0
M  V30 27 C 2.5868 -5.0789 4.8401 0
M  V30 28 C 1.3885 -4.3929 4.7591 0
M  V30 29 C -2.3120 -4.4765 5.8430 0
M  V30 30 C -3.4092 -5.3130 5.7437 0
M  V30 31 H -5.1460 -3.6534 3.3664 0
M  V30 32 H -3.1285 -2.2351 3.4537 0
M  V30 33 H -2.6735 -0.7333 5.0513 0
M  V30 34 H -0.9835 1.7661 7.8138 0
M  V30 35 H -2.1328 3.9267 7.9696 0
M  V30 36 H -3.0960 3.7333 3.8149 0
M  V30 37 H -1.9516 1.5464 3.6534 0
M  V30 38 H 1.5682 1.5568 4.3751 0
M  V30 39 H 3.4744 3.0894 4.7763 0
M  V30 40 H 3.4829 1.9898 8.9066 0
M  V30 41 H 1.6181 0.4424 8.5063 0
M  V30 42 H 1.8942 -1.6401 6.5117 0
M  V30 43 H 0.9236 -3.7817 8.0496 0
M  V30 44 H 3.0355 -4.9972 8.1922 0
M  V30 45 H 3.0384 -5.5055 3.9580 0
M  V30 46 H 0.9114 -4.2502 3.8028 0
M  V30 47 H -1.5388 -4.7146 6.5561 0
M  V30 48 H -3.4915 -6.1897 6.3663 0
M  V30 49 C 5.6075 4.2895 3.7369 0
M  V30 50 C 4.9698 4.3685 2.4972 0
M  V30 51 C 5.0174 3.3002 1.6311 0
M  V30 52 C 5.7558 2.1517 1.9410 0
M  V30 53 C 5.9187 1.1275 0.8985 0
M  V30 54 C 6.0315 1.5794 -0.4223 0
M  V30 55 C 6.1414 0.7350 -1.5197 0
M  V30 56 C 6.2762 1.3021 -2.8687 0
M  V30 57 C 7.1203 2.3912 -3.0987 0
M  V30 58 C 7.2169 2.9536 -4.3550 0
M  V30 59 C 6.5020 2.4021 -5.4188 0
M  V30 60 C 5.6759 1.2970 -5.2065 0
M  V30 61 C 5.5463 0.7746 -3.9345 0
M  V30 62 C 6.0800 -0.6464 -1.3000 0
M  V30 63 C 6.2089 -1.7235 -2.2965 0
M  V30 64 C 5.3088 -2.7906 -2.2258 0
M  V30 65 C 5.5446 -3.9581 -2.9174 0
M  V30 66 C 6.6662 -4.0598 -3.7395 0
M  V30 67 C 7.5229 -2.9690 -3.8840 0
M  V30 68 C 7.3028 -1.8145 -3.1549 0
M  V30 69 C 5.9938 -1.0962 0.0087 0
M  V30 70 C 5.9606 -0.2516 1.1163 0
M  V30 71 C 6.0720 -1.0932 2.3342 0
M  V30 72 C 7.3592 -1.4390 2.7604 0
M  V30 73 C 7.5994 -2.6757 3.3185 0
M  V30 74 C 6.5471 -3.5908 3.4769 0
M  V30 75 C 5.2364 -3.1227 3.3336 0
M  V30 76 C 5.0033 -1.8950 2.7439 0
M  V30 77 C 6.3419 2.0616 3.2038 0
M  V30 78 C 6.2551 3.1096 4.1019 0
M  V30 79 H 4.4097 5.2572 2.2549 0
M  V30 80 H 4.4729 3.3555 0.7030 0
M  V30 81 H 6.0582 2.6416 -0.6034 0
M  V30 82 H 7.7164 2.7945 -2.2956 0
M  V30 83 H 7.8695 3.7919 -4.5394 0
M  V30 84 H 5.0985 0.9098 -6.0311 0
M  V30 85 H 4.8612 -0.0365 -3.7512 0
M  V30 86 H 4.4342 -2.7030 -1.6021 0
M  V30 87 H 4.8697 -4.7940 -2.8441 0
M  V30 88 H 8.4060 -3.0691 -4.4934 0
M  V30 89 H 8.0126 -1.0051 -3.2162 0
M  V30 90 H 6.0145 -2.1605 0.1817 0
M  V30 91 H 8.1941 -0.7847 2.5579 0
M  V30 92 H 8.6052 -2.9541 3.5954 0
M  V30 93 H 4.4143 -3.7735 3.5797 0
M  V30 94 H 3.9942 -1.5925 2.5148 0
M  V30 95 H 6.8978 1.1821 3.4835 0
M  V30 96 H 6.7424 3.0530 5.0619 0
M  V30 97 C -4.1041 5.9279 2.8330 0
M  V30 98 C -4.0525 5.0057 1.7886 0
M  V30 99 C -2.8841 4.8612 1.0707 0
M  V30 100 C -1.7756 5.6703 1.3344 0
M  V30 101 C -0.6466 5.6449 0.3912 0
M  V30 102 C -0.9930 5.6536 -0.9519 0
M  V30 103 C -0.0544 5.7276 -1.9775 0
M  V30 104 C -0.7403 5.8113 -3.2888 0
M  V30 105 C -1.1261 7.0670 -3.7642 0
M  V30 106 C -2.2647 7.1993 -4.5300 0
M  V30 107 C -3.0296 6.0659 -4.8501 0
M  V30 108 C -2.4545 4.8052 -4.6505 0
M  V30 109 C -1.3413 4.6783 -3.8426 0
M  V30 110 C 1.2953 5.7683 -1.6442 0
M  V30 111 C 2.3919 5.7871 -2.6407 0
M  V30 112 C 2.8580 6.9845 -3.1751 0
M  V30 113 C 3.9677 6.9978 -3.9994 0
M  V30 114 C 4.5997 5.8002 -4.3344 0
M  V30 115 C 4.1042 4.5922 -3.8462 0
M  V30 116 C 3.0243 4.5930 -2.9836 0
M  V30 117 C 1.6508 5.7582 -0.2971 0
M  V30 118 C 0.7121 5.7104 0.7292 0
M  V30 119 C 1.1697 5.7040 2.1270 0
M  V30 120 C 2.1371 6.6204 2.5445 0
M  V30 121 C 2.6270 6.5897 3.8336 0
M  V30 122 C 2.1473 5.6485 4.7463 0
M  V30 123 C 1.1390 4.7639 4.3497 0
M  V30 124 C 0.6736 4.7817 3.0505 0
M  V30 125 C -1.8358 6.5787 2.3897 0
M  V30 126 C -2.9817 6.6890 3.1526 0
M  V30 127 H -4.9167 4.3950 1.5819 0
M  V30 128 H -2.8280 4.1164 0.2943 0
M  V30 129 H -2.0377 5.6578 -1.2184 0
M  V30 130 H -0.5937 7.9525 -3.4537 0
M  V30 131 H -2.5826 8.1809 -4.8469 0
M  V30 132 H -2.9479 3.9364 -5.0566 0
M  V30 133 H -0.9849 3.6990 -3.5670 0
M  V30 134 H 2.3743 7.9168 -2.9277 0
M  V30 135 H 4.3314 7.9273 -4.4116 0
M  V30 136 H 4.6060 3.6775 -4.1143 0
M  V30 137 H 2.6704 3.6626 -2.5681 0
M  V30 138 H 2.6990 5.7854 -0.0454 0
M  V30 139 H 2.4961 7.3754 1.8619 0
M  V30 140 H 3.3476 7.3198 4.1635 0
M  V30 141 H 0.7704 4.0276 5.0457 0
M  V30 142 H -0.0690 4.0650 2.7412 0
M  V30 143 H -1.0006 7.2272 2.5980 0
M  V30 144 H -3.0444 7.4099 3.9511 0
M  V30 145 C -6.8137 -4.2322 -4.7855 0
M  V30 146 C -5.8910 -3.1866 -4.7829 0
M  V30 147 C -5.6954 -2.4584 -3.6287 0
M  V30 148 C -6.4499 -2.7173 -2.4813 0
M  V30 149 C -6.3446 -1.7848 -1.3497 0
M  V30 150 C -6.3587 -0.4344 -1.6706 0
M  V30 151 C -6.3159 0.5840 -0.7208 0
M  V30 152 C -6.4316 1.8937 -1.4078 0
M  V30 153 C -7.7061 2.2843 -1.8332 0
M  V30 154 C -7.8600 3.0202 -2.9868 0
M  V30 155 C -6.7299 3.3896 -3.7349 0
M  V30 156 C -5.4741 3.2840 -3.1247 0
M  V30 157 C -5.3222 2.5107 -1.9886 0
M  V30 158 C -6.2027 0.2376 0.6252 0
M  V30 159 C -6.0684 1.1739 1.7514 0
M  V30 160 C -5.1967 0.8295 2.7903 0
M  V30 161 C -5.1452 1.5684 3.9500 0
M  V30 162 C -5.9273 2.7181 4.0809 0
M  V30 163 C -6.7520 3.1059 3.0251 0
M  V30 164 C -6.8290 2.3347 1.8780 0
M  V30 165 C -6.2291 -1.1220 0.9499 0
M  V30 166 C -6.3167 -2.1361 0.0055 0
M  V30 167 C -6.3604 -3.5252 0.4874 0
M  V30 168 C -7.2310 -3.8415 1.5332 0
M  V30 169 C -7.2281 -5.1001 2.0940 0
M  V30 170 C -6.3637 -6.0821 1.6075 0
M  V30 171 C -5.5424 -5.7936 0.5142 0
M  V30 172 C -5.5282 -4.5212 -0.0241 0
M  V30 173 C -7.3610 -3.7723 -2.4926 0
M  V30 174 C -7.5257 -4.5411 -3.6279 0
M  V30 175 H -5.3175 -2.9880 -5.6740 0
M  V30 176 H -4.9521 -1.6788 -3.6145 0
M  V30 177 H -6.4506 -0.1558 -2.7085 0
M  V30 178 H -8.5839 1.9273 -1.3161 0
M  V30 179 H -8.8510 3.2753 -3.3299 0
M  V30 180 H -4.6204 3.7306 -3.6089 0
M  V30 181 H -4.3369 2.3052 -1.6028 0
M  V30 182 H -4.5549 -0.0287 2.6806 0
M  V30 183 H -4.4833 1.2919 4.7540 0
M  V30 184 H -7.3868 3.9689 3.1418 0
M  V30 185 H -7.5130 2.6240 1.0965 0
M  V30 186 H -6.2031 -1.4004 1.9910 0
M  V30 187 H -7.9254 -3.1021 1.9005 0
M  V30 188 H -7.9226 -5.3513 2.8773 0
M  V30 189 H -4.8737 -6.5497 0.1363 0
M  V30 190 H -4.8547 -4.2918 -0.8332 0
M  V30 191 H -7.9698 -3.9755 -1.6268 0
M  V30 192 H -8.2516 -5.3369 -3.6534 0
M  V30 193 C -3.6837 -5.6433 -6.7116 0
M  V30 194 C -2.4930 -5.6039 -5.9829 0
M  V30 195 C -1.7046 -4.4764 -6.0123 0
M  V30 196 C -2.0403 -3.3795 -6.8140 0
M  V30 197 C -1.0752 -2.2738 -6.9070 0
M  V30 198 C 0.2774 -2.6263 -6.9531 0
M  V30 199 C 1.3133 -1.7012 -6.9637 0
M  V30 200 C 2.6996 -2.1871 -6.9937 0
M  V30 201 C 3.0562 -3.2412 -7.8388 0
M  V30 202 C 4.3370 -3.7531 -7.8218 0
M  V30 203 C 5.3004 -3.1822 -6.9894 0
M  V30 204 C 4.9626 -2.1114 -6.1605 0
M  V30 205 C 3.6639 -1.6412 -6.1463 0
M  V30 206 C 0.9897 -0.3407 -6.8856 0
M  V30 207 C 1.9210 0.8009 -6.8779 0
M  V30 208 C 1.6941 1.8182 -5.9458 0
M  V30 209 C 2.3550 3.0230 -6.0387 0
M  V30 210 C 3.3023 3.2184 -7.0443 0
M  V30 211 C 3.5906 2.1812 -7.9318 0
M  V30 212 C 2.8943 0.9880 -7.8574 0
M  V30 213 C -0.3529 0.0109 -6.8807 0
M  V30 214 C -1.3930 -0.9147 -6.9235 0
M  V30 215 C -2.6803 -0.1823 -7.0212 0
M  V30 216 C -3.1124 0.2154 -8.2902 0
M  V30 217 C -3.8130 1.3914 -8.4499 0
M  V30 218 C -4.1095 2.1898 -7.3334 0
M  V30 219 C -3.9538 1.6269 -6.0615 0
M  V30 220 C -3.2152 0.4689 -5.9070 0
M  V30 221 C -3.2369 -3.4198 -7.5271 0
M  V30 222 C -4.0570 -4.5331 -7.4682 0
M  V30 223 H -2.2245 -6.4518 -5.3744 0
M  V30 224 H -0.8150 -4.4393 -5.4057 0
M  V30 225 H 0.5354 -3.6721 -6.9933 0
M  V30 226 H 2.3333 -3.6568 -8.5226 0
M  V30 227 H 4.6194 -4.5641 -8.4737 0
M  V30 228 H 5.7080 -1.7093 -5.4930 0
M  V30 229 H 3.3789 -0.8596 -5.4616 0
M  V30 230 H 0.9795 1.6590 -5.1550 0
M  V30 231 H 2.1642 3.8152 -5.3344 0
M  V30 232 H 4.2946 2.3513 -8.7296 0
M  V30 233 H 3.0777 0.2214 -8.5934 0
M  V30 234 H -0.6048 1.0597 -6.8860 0
M  V30 235 H -2.8122 -0.3389 -9.1668 0
M  V30 236 H -4.0991 1.7127 -9.4399 0
M  V30 237 H -4.3276 2.1592 -5.2020 0
M  V30 238 H -2.9720 0.1135 -4.9187 0
M  V30 239 H -3.5208 -2.5946 -8.1597 0
M  V30 240 H -4.9525 -4.5801 -8.0661 0
M  V30 241 C -3.3285 -8.2523 2.9243 0
M  V30 242 C -3.2129 -7.0120 2.2953 0
M  V30 243 C -2.4306 -6.8837 1.1664 0
M  V30 244 C -1.7670 -7.9921 0.6421 0
M  V30 245 C -0.7490 -7.7801 -0.4038 0
M  V30 246 C 0.5628 -7.8996 0.0190 0
M  V30 247 C 1.6420 -7.5762 -0.7994 0
M  V30 248 C 2.9044 -7.6321 -0.0303 0
M  V30 249 C 3.3531 -8.8667 0.4469 0
M  V30 250 C 4.0891 -8.9434 1.6080 0
M  V30 251 C 4.3803 -7.7738 2.3291 0
M  V30 252 C 4.1726 -6.5400 1.7014 0
M  V30 253 C 3.4252 -6.4684 0.5414 0
M  V30 254 C 1.3913 -7.1392 -2.0996 0
M  V30 255 C 2.4541 -6.9293 -3.1046 0
M  V30 256 C 2.5874 -5.7209 -3.7879 0
M  V30 257 C 3.5050 -5.5891 -4.8155 0
M  V30 258 C 4.2502 -6.6949 -5.2196 0
M  V30 259 C 4.1269 -7.9050 -4.5382 0
M  V30 260 C 3.2626 -8.0058 -3.4654 0
M  V30 261 C 0.0672 -7.0116 -2.5230 0
M  V30 262 C -1.0086 -7.3292 -1.7007 0
M  V30 263 C -2.3844 -7.2997 -2.2325 0
M  V30 264 C -3.1429 -8.4709 -2.2096 0
M  V30 265 C -4.3894 -8.5149 -2.8007 0
M  V30 266 C -4.9021 -7.3811 -3.4368 0
M  V30 267 C -4.1638 -6.1967 -3.4312 0
M  V30 268 C -2.9210 -6.1579 -2.8269 0
M  V30 269 C -1.9261 -9.2384 1.2443 0
M  V30 270 C -2.7022 -9.3743 2.3774 0
M  V30 271 H -3.6887 -6.1551 2.7447 0
M  V30 272 H -2.2946 -5.9166 0.7100 0
M  V30 273 H 0.7508 -8.2204 1.0316 0
M  V30 274 H 3.0626 -9.7782 -0.0534 0
M  V30 275 H 4.4106 -9.9073 1.9720 0
M  V30 276 H 4.5287 -5.6444 2.1873 0
M  V30 277 H 3.1596 -5.5083 0.1297 0
M  V30 278 H 1.9800 -4.8761 -3.5046 0
M  V30 279 H 3.6244 -4.6600 -5.3474 0
M  V30 280 H 4.7251 -8.7504 -4.8433 0
M  V30 281 H 3.1814 -8.9449 -2.9412 0
M  V30 282 H -0.1217 -6.7010 -3.5379 0
M  V30 283 H -2.7396 -9.3653 -1.7619 0
M  V30 284 H -4.9374 -9.4441 -2.8399 0
M  V30 285 H -4.5878 -5.3188 -3.8908 0
M  V30 286 H -2.3594 -5.2375 -2.8189 0
M  V30 287 H -1.4313 -10.1059 0.8343 0
M  V30 288 H -2.8448 -10.3452 2.8278 0
M  V30 289 Zn 4.7944 5.5162 6.5462 0 CHG=2
M  V30 290 C 8.9949 4.4456 8.8231 0
M  V30 291 C 7.9407 3.5580 8.6708 0
M  V30 292 C 6.8111 3.9703 7.9668 0
M  V30 293 H 7.9936 2.5667 9.0926 0
M  V30 294 N 6.7119 5.1963 7.4280 0
M  V30 295 C 5.6796 3.0954 7.7617 0
M  V30 296 C 7.7251 6.0341 7.5691 0
M  V30 297 C 8.8867 5.7079 8.2581 0
M  V30 298 H 7.6182 7.0101 7.1217 0
M  V30 299 H 9.6830 6.4284 8.3521 0
M  V30 300 H 9.8817 4.1635 9.3691 0
M  V30 301 N 4.7000 3.4676 7.0268 0
M  V30 302 H 5.7138 2.1138 8.2263 0
M  V30 303 C 2.3777 5.5275 10.7708 0
M  V30 304 C 1.7660 5.4050 9.5327 0
M  V30 305 C 2.5444 5.5144 8.3826 0
M  V30 306 H 0.7053 5.2265 9.4643 0
M  V30 307 N 3.8712 5.7191 8.4398 0
M  V30 308 C 1.9732 5.4696 7.0547 0
M  V30 309 C 4.4462 5.8550 9.6231 0
M  V30 310 C 3.7428 5.7687 10.8177 0
M  V30 311 H 5.5088 6.0436 9.6277 0
M  V30 312 H 4.2571 5.8889 11.7575 0
M  V30 313 H 1.8079 5.4468 11.6835 0
M  V30 314 N 2.7173 5.6230 6.0243 0
M  V30 315 H 0.8953 5.3580 6.9724 0
M  V30 316 C 6.1793 10.0227 5.4962 0
M  V30 317 C 6.3198 8.9463 4.6317 0
M  V30 318 C 5.8157 7.7067 5.0184 0
M  V30 319 H 6.8181 9.0664 3.6828 0
M  V30 320 N 5.1909 7.5282 6.1951 0
M  V30 321 C 5.9204 6.5322 4.1755 0
M  V30 322 C 5.0489 8.5593 7.0106 0
M  V30 323 C 5.5281 9.8278 6.7057 0
M  V30 324 H 4.5322 8.3731 7.9395 0
M  V30 325 H 5.3933 10.6415 7.4000 0
M  V30 326 H 6.5659 10.9951 5.2332 0
M  V30 327 N 5.5668 5.3828 4.6136 0
M  V30 328 H 6.3144 6.6691 3.1710 0
M  V30 329 Zn -6.0577 -7.6890 4.3561 0 CHG=2
M  V30 330 C -10.3125 -6.0128 5.9265 0
M  V30 331 C -9.1489 -5.2563 5.8873 0
M  V30 332 C -7.9921 -5.8357 5.3731 0
M  V30 333 H -9.1420 -4.2424 6.2547 0
M  V30 334 N -7.9731 -7.0967 4.9072 0
M  V30 335 C -6.7305 -5.1210 5.3078 0
M  V30 336 C -9.0849 -7.8111 4.9383 0
M  V30 337 C -10.2816 -7.3116 5.4407 0
M  V30 338 H -9.0268 -8.8149 4.5462 0
M  V30 339 H -11.1657 -7.9285 5.4488 0
M  V30 340 H -11.2268 -5.6001 6.3237 0
M  V30 341 N -5.6624 -5.7191 4.9412 0
M  V30 342 H -6.7295 -4.0731 5.6008 0
M  V30 343 C -4.7752 -9.8293 8.5549 0
M  V30 344 C -3.9847 -9.8065 7.4159 0
M  V30 345 C -4.4397 -9.1139 6.2958 0
M  V30 346 H -3.0357 -10.3187 7.3962 0
M  V30 347 N -5.6155 -8.4650 6.2860 0
M  V30 348 C -3.6647 -9.0357 5.0784 0
M  V30 349 C -6.3584 -8.4800 7.3800 0
M  V30 350 C -5.9838 -9.1485 8.5389 0
M  V30 351 H -7.2934 -7.9427 7.3413 0
M  V30 352 H -6.6263 -9.1390 9.4045 0
M  V30 353 H -4.4582 -10.3639 9.4371 0
M  V30 354 N -4.0763 -8.3197 4.1011 0
M  V30 355 H -2.7226 -9.5754 5.0458 0
M  V30 356 C -6.6184 -12.0655 2.2879 0
M  V30 357 C -6.4646 -10.8875 1.5732 0
M  V30 358 C -6.4204 -9.6807 2.2671 0
M  V30 359 H -6.3820 -10.9071 0.4984 0
M  V30 360 N -6.5034 -9.6257 3.6069 0
M  V30 361 C -6.3440 -8.4046 1.5910 0
M  V30 362 C -6.6714 -10.7506 4.2814 0
M  V30 363 C -6.7365 -11.9954 3.6682 0
M  V30 364 H -6.7621 -10.6665 5.3537 0
M  V30 365 H -6.8779 -12.8842 4.2618 0
M  V30 366 H -6.6555 -13.0198 1.7857 0
M  V30 367 N -6.3511 -7.3180 2.2653 0
M  V30 368 H -6.3437 -8.4075 0.5047 0
M  V30 369 Zn -5.4696 5.5191 5.5889 0 CHG=2
M  V30 370 C -3.7634 9.7058 7.3831 0
M  V30 371 C -3.0189 8.5377 7.3084 0
M  V30 372 C -3.5978 7.4088 6.7330 0
M  V30 373 H -2.0106 8.5073 7.6896 0
M  V30 374 N -4.8496 7.4183 6.2466 0
M  V30 375 C -2.8821 6.1591 6.6058 0
M  V30 376 C -5.5509 8.5372 6.3116 0
M  V30 377 C -5.0526 9.7075 6.8717 0
M  V30 378 H -6.5509 8.5083 5.9076 0
M  V30 379 H -5.6637 10.5949 6.9084 0
M  V30 380 H -3.3508 10.5978 7.8285 0
M  V30 381 N -3.3968 5.1729 5.9737 0
M  V30 382 H -1.8875 6.1101 7.0394 0
M  V30 383 C -6.1221 3.6262 10.0227 0
M  V30 384 C -6.0944 2.8812 8.8538 0
M  V30 385 C -5.9429 3.5440 7.6378 0
M  V30 386 H -6.1965 1.8082 8.8855 0
M  V30 387 N -5.8010 4.8777 7.5642 0
M  V30 388 C -5.9681 2.8383 6.3768 0
M  V30 389 C -5.8399 5.5842 8.6824 0
M  V30 390 C -6.0013 5.0055 9.9348 0
M  V30 391 H -5.7436 6.6547 8.5863 0
M  V30 392 H -6.0328 5.6251 10.8166 0
M  V30 393 H -6.2425 3.1487 10.9828 0
M  V30 394 N -5.8862 3.4699 5.2655 0
M  V30 395 H -6.1065 1.7604 6.4145 0
M  V30 396 C -9.8704 7.0509 4.2047 0
M  V30 397 C -8.7757 6.9648 3.3554 0
M  V30 398 C -7.5707 6.4893 3.8646 0
M  V30 399 H -8.8571 7.2681 2.3236 0
M  V30 400 N -7.4400 6.1022 5.1451 0
M  V30 401 C -6.3703 6.3838 3.0555 0
M  V30 402 C -8.4866 6.1801 5.9482 0
M  V30 403 C -9.7245 6.6505 5.5245 0
M  V30 404 H -8.3417 5.8567 6.9678 0
M  V30 405 H -10.5513 6.6996 6.2146 0
M  V30 406 H -10.8189 7.4208 3.8473 0
M  V30 407 N -5.2663 6.0586 3.6077 0
M  V30 408 H -6.4443 6.6063 1.9936 0
M  V30 409 Zn 5.9850 4.9613 -7.1040 0 CHG=2
M  V30 410 C 7.2528 3.0423 -11.3747 0
M  V30 411 C 7.2559 2.3382 -10.1786 0
M  V30 412 C 6.8411 2.9878 -9.0189 0
M  V30 413 H 7.5797 1.3099 -10.1508 0
M  V30 414 N 6.4277 4.2671 -9.0278 0
M  V30 415 C 6.8225 2.3356 -7.7232 0
M  V30 416 C 6.4155 4.9301 -10.1710 0
M  V30 417 C 6.8224 4.3607 -11.3726 0
M  V30 418 H 6.0669 5.9509 -10.1357 0
M  V30 419 H 6.8004 4.9392 -12.2820 0
M  V30 420 H 7.5750 2.5749 -12.2923 0
M  V30 421 N 6.5715 3.0189 -6.6728 0
M  V30 422 H 7.0413 1.2721 -7.6835 0
M  V30 423 C 10.1132 7.3487 -6.1783 0
M  V30 424 C 8.9909 7.3968 -5.3647 0
M  V30 425 C 7.8889 6.6114 -5.6948 0
M  V30 426 H 8.9726 8.0317 -4.4929 0
M  V30 427 N 7.8790 5.8114 -6.7730 0
M  V30 428 C 6.6924 6.5930 -4.8826 0
M  V30 429 C 8.9573 5.7590 -7.5369 0
M  V30 430 C 10.0992 6.5085 -7.2821 0
M  V30 431 H 8.9181 5.0981 -8.3891 0
M  V30 432 H 10.9537 6.4388 -7.9357 0
M  V30 433 H 10.9814 7.9500 -5.9570 0
M  V30 434 N 5.7427 5.7790 -5.1476 0
M  V30 435 H 6.6535 7.2680 -4.0319 0
M  V30 436 C 3.6751 9.1565 -7.9094 0
M  V30 437 C 3.0394 7.9650 -7.5946 0
M  V30 438 C 3.8037 6.8063 -7.4841 0
M  V30 439 H 1.9725 7.9343 -7.4410 0
M  V30 440 N 5.1368 6.8118 -7.6513 0
M  V30 441 C 3.2097 5.5111 -7.2376 0
M  V30 442 C 5.7352 7.9478 -7.9693 0
M  V30 443 C 5.0473 9.1462 -8.1123 0
M  V30 444 H 6.8036 7.9101 -8.1190 0
M  V30 445 H 5.5802 10.0454 -8.3765 0
M  V30 446 H 3.1190 10.0763 -8.0031 0
M  V30 447 N 3.9400 4.4599 -7.2042 0
M  V30 448 H 2.1271 5.4603 -7.1465 0
M  V30 449 Zn 7.0480 -5.6877 -6.4440 0 CHG=2
M  V30 450 C 8.0331 -9.8942 -4.1991 0
M  V30 451 C 7.5929 -8.7504 -3.5504 0
M  V30 452 C 7.4166 -7.5853 -4.2923 0
M  V30 453 H 7.3926 -8.7601 -2.4908 0
M  V30 454 N 7.6400 -7.5403 -5.6163 0
M  V30 455 C 7.0288 -6.3324 -3.6834 0
M  V30 456 C 8.0731 -8.6311 -6.2270 0
M  V30 457 C 8.2870 -9.8314 -5.5615 0
M  V30 458 H 8.2600 -8.5536 -7.2872 0
M  V30 459 H 8.6435 -10.6923 -6.1040 0
M  V30 460 H 8.1824 -10.8172 -3.6608 0
M  V30 461 N 6.9746 -5.2663 -4.3895 0
M  V30 462 H 6.8455 -6.3202 -2.6116 0
M  V30 463 C 11.3201 -3.5303 -7.2451 0
M  V30 464 C 10.0980 -2.8749 -7.2990 0
M  V30 465 C 8.9382 -3.5985 -7.0339 0
M  V30 466 H 10.0509 -1.8267 -7.5476 0
M  V30 467 N 8.9699 -4.9042 -6.7151 0
M  V30 468 C 7.6175 -3.0015 -7.0865 0
M  V30 469 C 10.1369 -5.5220 -6.6568 0
M  V30 470 C 11.3411 -4.8779 -6.9178 0
M  V30 471 H 10.1195 -6.5675 -6.3901 0
M  V30 472 H 12.2704 -5.4218 -6.8636 0
M  V30 473 H 12.2392 -3.0042 -7.4516 0
M  V30 474 N 6.5821 -3.7416 -6.9685 0
M  V30 475 H 7.5476 -1.9293 -7.2474 0
M  V30 476 C 6.4571 -8.0085 -10.6576 0
M  V30 477 C 5.5908 -8.1266 -9.5803 0
M  V30 478 C 5.8241 -7.3544 -8.4453 0
M  V30 479 H 4.7527 -8.8042 -9.6227 0
M  V30 480 N 6.8585 -6.5023 -8.3612 0
M  V30 481 C 4.9560 -7.4064 -7.2887 0
M  V30 482 C 7.6749 -6.3857 -9.3951 0
M  V30 483 C 7.5162 -7.1174 -10.5659 0
M  V30 484 H 8.4911 -5.6870 -9.2938 0
M  V30 485 H 8.2097 -6.9954 -11.3822 0
M  V30 486 H 6.3109 -8.5969 -11.5502 0
M  V30 487 N 5.1136 -6.5828 -6.3245 0
M  V30 488 H 4.1590 -8.1454 -7.2899 0
M  V30 489 Zn -6.5362 -7.0155 -6.1585 0 CHG=2
M  V30 490 C -8.1632 -5.5627 -10.5105 0
M  V30 491 C -8.0162 -4.7221 -9.4159 0
M  V30 492 C -7.5200 -5.2520 -8.2281 0
M  V30 493 H -8.2886 -3.6807 -9.4840 0
M  V30 494 N -7.1714 -6.5447 -8.1131 0
M  V30 495 C -7.3522 -4.4503 -7.0304 0
M  V30 496 C -7.3084 -7.3397 -9.1598 0
M  V30 497 C -7.8021 -6.8955 -10.3813 0
M  V30 498 H -7.0152 -8.3703 -9.0297 0
M  V30 499 H -7.8991 -7.5803 -11.2082 0
M  V30 500 H -8.5500 -5.1895 -11.4462 0
M  V30 501 N -7.0020 -5.0101 -5.9374 0
M  V30 502 H -7.5516 -3.3831 -7.0963 0
M  V30 503 C -10.7241 -8.6674 -4.3157 0
M  V30 504 C -9.5298 -8.6326 -3.6113 0
M  V30 505 C -8.4027 -8.0925 -4.2270 0
M  V30 506 H -9.4776 -9.0186 -2.6056 0
M  V30 507 N -8.4400 -7.6006 -5.4763 0
M  V30 508 C -7.1251 -8.0104 -3.5543 0
M  V30 509 C -9.5837 -7.6270 -6.1391 0
M  V30 510 C -10.7535 -8.1516 -5.6029 0
M  V30 511 H -9.5758 -7.2197 -7.1382 0
M  V30 512 H -11.6617 -8.1583 -6.1837 0
M  V30 513 H -11.6152 -9.0862 -3.8743 0
M  V30 514 N -6.1338 -7.4140 -4.1022 0
M  V30 515 H -7.0588 -8.4461 -2.5615 0
M  V30 516 C -4.9158 -11.5171 -7.0947 0
M  V30 517 C -4.1138 -10.3864 -7.0822 0
M  V30 518 C -4.6979 -9.1503 -6.8136 0
M  V30 519 H -3.0576 -10.4619 -7.2863 0
M  V30 520 N -6.0080 -9.0219 -6.5485 0
M  V30 521 C -3.9304 -7.9258 -6.8406 0
M  V30 522 C -6.7689 -10.1044 -6.5668 0
M  V30 523 C -6.2713 -11.3727 -6.8371 0
M  V30 524 H -7.8197 -9.9658 -6.3640 0
M  V30 525 H -6.9338 -12.2233 -6.8465 0
M  V30 526 H -4.5000 -12.4902 -7.3056 0
M  V30 527 N -4.4945 -6.7878 -6.6778 0
M  V30 528 H -2.8664 -8.0138 -7.0477 0
M  V30 529 Zn 5.9905 -6.5161 4.8724 0 CHG=2
M  V30 530 C 8.8775 -4.3084 8.1105 0
M  V30 531 C 7.5094 -4.1194 8.0073 0
M  V30 532 C 6.7977 -4.8424 7.0488 0
M  V30 533 H 6.9999 -3.4321 8.6638 0
M  V30 534 N 7.4043 -5.6979 6.2119 0
M  V30 535 C 5.3679 -4.7118 6.9270 0
M  V30 536 C 8.7106 -5.8764 6.3181 0
M  V30 537 C 9.4911 -5.2098 7.2520 0
M  V30 538 H 9.1591 -6.5829 5.6381 0
M  V30 539 H 10.5516 -5.3962 7.3060 0
M  V30 540 H 9.4575 -3.7725 8.8458 0
M  V30 541 N 4.6736 -5.3398 6.0422 0
M  V30 542 H 4.8988 -4.0305 7.6322 0
M  V30 543 C 4.7829 -10.2266 7.8028 0
M  V30 544 C 4.3377 -10.0753 6.5000 0
M  V30 545 C 4.7743 -8.9749 5.7606 0
M  V30 546 H 3.6729 -10.8028 6.0614 0
M  V30 547 N 5.5982 -8.0516 6.2782 0
M  V30 548 C 4.3846 -8.8037 4.3829 0
M  V30 549 C 6.0169 -8.2011 7.5234 0
M  V30 550 C 5.6441 -9.2717 8.3247 0
M  V30 551 H 6.6841 -7.4458 7.9074 0
M  V30 552 H 6.0220 -9.3558 9.3309 0
M  V30 553 H 4.4733 -11.0703 8.4001 0
M  V30 554 N 4.7676 -7.8041 3.6697 0
M  V30 555 H 3.7472 -9.5843 3.9761 0
M  V30 556 C 9.5993 -8.6501 2.4079 0
M  V30 557 C 9.2322 -7.3224 2.2588 0
M  V30 558 C 8.1936 -6.8187 3.0421 0
M  V30 559 H 9.7462 -6.6864 1.5556 0
M  V30 560 N 7.5279 -7.5877 3.9175 0
M  V30 561 C 7.7975 -5.4339 2.9675 0
M  V30 562 C 7.8823 -8.8543 4.0553 0
M  V30 563 C 8.9152 -9.4312 3.3289 0
M  V30 564 H 7.3302 -9.4366 4.7763 0
M  V30 565 H 9.1769 -10.4651 3.4861 0
M  V30 566 H 10.4050 -9.0712 1.8267 0
M  V30 567 N 6.7913 -4.9636 3.6173 0
M  V30 568 H 8.3982 -4.7984 2.3211 0
M  V30 569 Zn -5.6877 4.9451 -6.4323 0 CHG=2
M  V30 570 C -8.4717 8.6114 -4.8158 0
M  V30 571 C -7.1361 8.4371 -4.4923 0
M  V30 572 C -6.4507 7.3422 -5.0208 0
M  V30 573 H -6.6324 9.1427 -3.8505 0
M  V30 574 N -7.0510 6.4435 -5.8155 0
M  V30 575 C -5.0501 7.1406 -4.7445 0
M  V30 576 C -8.3275 6.6135 -6.1158 0
M  V30 577 C -9.0799 7.6822 -5.6479 0
M  V30 578 H -8.7788 5.8765 -6.7606 0
M  V30 579 H -10.1152 7.7835 -5.9310 0
M  V30 580 H -9.0293 9.4525 -4.4337 0
M  V30 581 N -4.3789 6.1457 -5.2075 0
M  V30 582 H -4.5890 7.8858 -4.1014 0
M  V30 583 C -3.6795 7.5279 -10.0466 0
M  V30 584 C -3.3927 6.1997 -9.7765 0
M  V30 585 C -4.0534 5.5677 -8.7224 0
M  V30 586 H -2.6780 5.6611 -10.3785 0
M  V30 587 N -4.9399 6.2139 -7.9500 0
M  V30 588 C -3.8330 4.1719 -8.4360 0
M  V30 589 C -5.2093 7.4813 -8.2137 0
M  V30 590 C -4.6114 8.1812 -9.2526 0
M  V30 591 H -5.9357 7.9662 -7.5812 0
M  V30 592 H -4.8741 9.2108 -9.4348 0
M  V30 593 H -3.1957 8.0455 -10.8604 0
M  V30 594 N -4.4019 3.5537 -7.4612 0
M  V30 595 H -3.1435 3.6598 -9.1030 0
M  V30 596 C -9.1937 2.9900 -9.1979 0
M  V30 597 C -9.0055 2.7170 -7.8528 0
M  V30 598 C -7.9636 3.3516 -7.1749 0
M  V30 599 H -9.6614 2.0344 -7.3360 0
M  V30 600 N -7.1272 4.2003 -7.7914 0
M  V30 601 C -7.7545 3.1352 -5.7650 0
M  V30 602 C -7.3111 4.4540 -9.0760 0
M  V30 603 C -8.3312 3.8799 -9.8221 0
M  V30 604 H -6.6264 5.1470 -9.5379 0
M  V30 605 H -8.4467 4.1279 -10.8649 0
M  V30 606 H -9.9963 2.5267 -9.7507 0
M  V30 607 N -6.8089 3.6978 -5.0969 0
M  V30 608 H -8.4506 2.4481 -5.2903 0
M  V30 END ATOM
M  V30 BEGIN BOND
M  V30 1 2 1 2
M  V30 2 1 2 3
M  V30 3 2 3 4
M  V30 4 1 4 5
M  V30 5 2 5 6
M  V30 6 1 6 7
M  V30 7 1 7 8
M  V30 8 2 8 9
M  V30 9 1 9 10
M  V30 10 2 10 11
M  V30 11 1 11 12
M  V30 12 2 12 13
M  V30 13 2 7 14
M  V30 14 1 14 15
M  V30 15 2 15 16
M  V30 16 1 16 17
M  V30 17 2 17 18
M  V30 18 1 18 19
M  V30 19 2 19 20
M  V30 20 1 14 21
M  V30 21 2 21 22
M  V30 22 1 22 23
M  V30 23 2 23 24
M  V30 24 1 24 25
M  V30 25 2 25 26
M  V30 26 1 26 27
M  V30 27 2 27 28
M  V30 28 1 4 29
M  V30 29 2 29 30
M  V30 30 1 30 1
M  V30 31 1 22 5
M  V30 32 1 28 23
M  V30 33 1 13 8
M  V30 34 1 20 15
M  V30 35 1 2 31
M  V30 36 1 3 32
M  V30 37 1 6 33
M  V30 38 1 9 34
M  V30 39 1 10 35
M  V30 40 1 12 36
M  V30 41 1 13 37
M  V30 42 1 16 38
M  V30 43 1 17 39
M  V30 44 1 19 40
M  V30 45 1 20 41
M  V30 46 1 21 42
M  V30 47 1 24 43
M  V30 48 1 25 44
M  V30 49 1 27 45
M  V30 50 1 28 46
M  V30 51 1 29 47
M  V30 52 1 30 48
M  V30 53 2 49 50
M  V30 54 1 50 51
M  V30 55 2 51 52
M  V30 56 1 52 53
M  V30 57 2 53 54
M  V30 58 1 54 55
M  V30 59 1 55 56
M  V30 60 2 56 57
M  V30 61 1 57 58
M  V30 62 2 58 59
M  V30 63 1 59 60
M  V30 64 2 60 61
M  V30 65 2 55 62
M  V30 66 1 62 63
M  V30 67 2 63 64
M  V30 68 1 64 65
M  V30 69 2 65 66
M  V30 70 1 66 67
M  V30 71 2 67 68
M  V30 72 1 62 69
M  V30 73 2 69 70
M  V30 74 1 70 71
M  V30 75 2 71 72
M  V30 76 1 72 73
M  V30 77 2 73 74
M  V30 78 1 74 75
M  V30 79 2 75 76
M  V30 80 1 52 77
M  V30 81 2 77 78
M  V30 82 1 78 49
M  V30 83 1 70 53
M  V30 84 1 76 71
M  V30 85 1 61 56
M  V30 86 1 68 63
M  V30 87 1 50 79
M  V30 88 1 51 80
M  V30 89 1 54 81
M  V30 90 1 57 82
M  V30 91 1 58 83
M  V30 92 1 60 84
M  V30 93 1 61 85
M  V30 94 1 64 86
M  V30 95 1 65 87
M  V30 96 1 67 88
M  V30 97 1 68 89
M  V30 98 1 69 90
M  V30 99 1 72 91
M  V30 100 1 73 92
M  V30 101 1 75 93
M  V30 102 1 76 94
M  V30 103 1 77 95
M  V30 104 1 78 96
M  V30 105 2 97 98
M  V30 106 1 98 99
M  V30 107 2 99 100
M  V30 108 1 100 101
M  V30 109 2 101 102
M  V30 110 1 102 103
M  V30 111 1 103 104
M  V30 112 2 104 105
M  V30 113 1 105 106
M  V30 114 2 106 107
M  V30 115 1 107 108
M  V30 116 2 108 109
M  V30 117 2 103 110
M  V30 118 1 110 111
M  V30 119 2 111 112
M  V30 120 1 112 113
M  V30 121 2 113 114
M  V30 122 1 114 115
M  V30 123 2 115 116
M  V30 124 1 110 117
M  V30 125 2 117 118
M  V30 126 1 118 119
M  V30 127 2 119 120
M  V30 128 1 120 121
M  V30 129 2 121 122
M  V30 130 1 122 123
M  V30 131 2 123 124
M  V30 132 1 100 125
M  V30 133 2 125 126
M  V30 134 1 126 97
M  V30 135 1 118 101
M  V30 136 1 124 119
M  V30 137 1 109 104
M  V30 138 1 116 111
M  V30 139 1 98 127
M  V30 140 1 99 128
M  V30 141 1 102 129
M  V30 142 1 105 130
M  V30 143 1 106 131
M  V30 144 1 108 132
M  V30 145 1 109 133
M  V30 146 1 112 134
M  V30 147 1 113 135
M  V30 148 1 115 136
M  V30 149 1 116 137
M  V30 150 1 117 138
M  V30 151 1 120 139
M  V30 152 1 121 140
M  V30 153 1 123 141
M  V30 154 1 124 142
M  V30 155 1 125 143
M  V30 156 1 126 144
M  V30 157 2 145 146
M  V30 158 1 146 147
M  V30 159 2 147 148
M  V30 160 1 148 149
M  V30 161 2 149 150
M  V30 162 1 150 151
M  V30 163 1 151 152
M  V30 164 2 152 153
M  V30 165 1 153 154
M  V30 166 2 154 155
M  V30 167 1 155 156
M  V30 168 2 156 157
M  V30 169 2 151 158
M  V30 170 1 158 159
M  V30 171 2 159 160
M  V30 172 1 160 161
M  V30 173 2 161 162
M  V30 174 1 162 163
M  V30 175 2 163 164
M  V30 176 1 158 165
M  V30 177 2 165 166
M  V30 178 1 166 167
M  V30 179 2 167 168
M  V30 180 1 168 169
M  V30 181 2 169 170
M  V30 182 1 170 171
M  V30 183 2 171 172
M  V30 184 1 148 173
M  V30 185 2 173 174
M  V30 186 1 174 145
M  V30 187 1 166 149
M  V30 188 1 172 167
M  V30 189 1 157 152
M  V30 190 1 164 159
M  V30 191 1 146 175
M  V30 192 1 147 176
M  V30 193 1 150 177
M  V30 194 1 153 178
M  V30 195 1 154 179
M  V30 196 1 156 180
M  V30 197 1 157 181
M  V30 198 1 160 182
M  V30 199 1 161 183
M  V30 200 1 163 184
M  V30 201 1 164 185
M  V30 202 1 165 186
M  V30 203 1 168 187
M  V30 204 1 169 188
M  V30 205 1 171 189
M  V30 206 1 172 190
M  V30 207 1 173 191
M  V30 208 1 174 192
M  V30 209 2 193 194
M  V30 210 1 194 195
M  V30 211 2 195 196
M  V30 212 1 196 197
M  V30 213 2 197 198
M  V30 214 1 198 199
M  V30 215 1 199 200
M  V30 216 2 200 201
M  V30 217 1 201 202
M  V30 218 2 202 203
M  V30 219 1 203 204
M  V30 220 2 204 205
M  V30 221 2 199 206
M  V30 222 1 206 207
M  V30 223 2 207 208
M  V30 224 1 208 209
M  V30 225 2 209 210
M  V30 226 1 210 211
M  V30 227 2 211 212
M  V30 228 1 206 213
M  V30 229 2 213 214
M  V30 230 1 214 215
M  V30 231 2 215 216
M  V30 232 1 216 217
M  V30 233 2 217 218
M  V30 234 1 218 219
M  V30 235 2 219 220
M  V30 236 1 196 221
M  V30 237 2 221 222
M  V30 238 1 222 193
M  V30 239 1 214 197
M  V30 240 1 220 215
M  V30 241 1 205 200
M  V30 242 1 212 207
M  V30 243 1 194 223
M  V30 244 1 195 224
M  V30 245 1 198 225
M  V30 246 1 201 226
M  V30 247 1 202 227
M  V30 248 1 204 228
M  V30 249 1 205 229
M  V30 250 1 208 230
M  V30 251 1 209 231
M  V30 252 1 211 232
M  V30 253 1 212 233
M  V30 254 1 213 234
M  V30 255 1 216 235
M  V30 256 1 217 236
M  V30 257 1 219 237
M  V30 258 1 220 238
M  V30 259 1 221 239
M  V30 260 1 222 240
M  V30 261 2 241 242
M  V30 262 1 242 243
M  V30 263 2 243 244
M  V30 264 1 244 245
M  V30 265 2 245 246
M  V30 266 1 246 247
M  V30 267 1 247 248
M  V30 268 2 248 249
M  V30 269 1 249 250
M  V30 270 2 250 251
M  V30 271 1 251 252
M  V30 272 2 252 253
M  V30 273 2 247 254
M  V30 274 1 254 255
M  V30 275 2 255 256
M  V30 276 1 256 257
M  V30 277 2 257 258
M  V30 278 1 258 259
M  V30 279 2 259 260
M  V30 280 1 254 261
M  V30 281 2 261 262
M  V30 282 1 262 263
M  V30 283 2 263 264
M  V30 284 1 264 265
M  V30 285 2 265 266
M  V30 286 1 266 267
M  V30 287 2 267 268
M  V30 288 1 244 269
M  V30 289 2 269 270
M  V30 290 1 270 241
M  V30 291 1 262 245
M  V30 292 1 268 263
M  V30 293 1 253 248
M  V30 294 1 260 255
M  V30 295 1 242 271
M  V30 296 1 243 272
M  V30 297 1 246 273
M  V30 298 1 249 274
M  V30 299 1 250 275
M  V30 300 1 252 276
M  V30 301 1 253 277
M  V30 302 1 256 278
M  V30 303 1 257 279
M  V30 304 1 259 280
M  V30 305 1 260 281
M  V30 306 1 261 282
M  V30 307 1 264 283
M  V30 308 1 265 284
M  V30 309 1 267 285
M  V30 310 1 268 286
M  V30 311 1 269 287
M  V30 312 1 270 288
M  V30 313 1 290 300
M  V30 314 2 290 297
M  V30 315 1 291 290
M  V30 316 2 292 291
M  V30 317 1 292 294
M  V30 318 1 293 291
M  V30 319 2 294 296
M  V30 320 1 295 292
M  V30 321 1 296 297
M  V30 322 1 296 298
M  V30 323 1 297 299
M  V30 324 2 301 295
M  V30 325 1 302 295
M  V30 326 1 303 313
M  V30 327 2 303 310
M  V30 328 1 304 303
M  V30 329 2 305 304
M  V30 330 1 305 307
M  V30 331 1 306 304
M  V30 332 2 307 309
M  V30 333 1 308 305
M  V30 334 1 309 310
M  V30 335 1 309 311
M  V30 336 1 310 312
M  V30 337 2 314 308
M  V30 338 1 315 308
M  V30 339 1 316 326
M  V30 340 2 316 323
M  V30 341 1 317 316
M  V30 342 2 318 317
M  V30 343 1 318 320
M  V30 344 1 319 317
M  V30 345 2 320 322
M  V30 346 1 321 318
M  V30 347 1 322 323
M  V30 348 1 322 324
M  V30 349 1 323 325
M  V30 350 2 327 321
M  V30 351 1 328 321
M  V30 352 9 301 289
M  V30 353 9 294 289
M  V30 354 9 314 289
M  V30 355 9 307 289
M  V30 356 9 327 289
M  V30 357 9 320 289
M  V30 358 1 330 340
M  V30 359 2 330 337
M  V30 360 1 331 330
M  V30 361 2 332 331
M  V30 362 1 332 334
M  V30 363 1 333 331
M  V30 364 2 334 336
M  V30 365 1 335 332
M  V30 366 1 336 337
M  V30 367 1 336 338
M  V30 368 1 337 339
M  V30 369 2 341 335
M  V30 370 1 342 335
M  V30 371 1 343 353
M  V30 372 2 343 350
M  V30 373 1 344 343
M  V30 374 2 345 344
M  V30 375 1 345 347
M  V30 376 1 346 344
M  V30 377 2 347 349
M  V30 378 1 348 345
M  V30 379 1 349 350
M  V30 380 1 349 351
M  V30 381 1 350 352
M  V30 382 2 354 348
M  V30 383 1 355 348
M  V30 384 1 356 366
M  V30 385 2 356 363
M  V30 386 1 357 356
M  V30 387 2 358 357
M  V30 388 1 358 360
M  V30 389 1 359 357
M  V30 390 2 360 362
M  V30 391 1 361 358
M  V30 392 1 362 363
M  V30 393 1 362 364
M  V30 394 1 363 365
M  V30 395 2 367 361
M  V30 396 1 368 361
M  V30 397 9 341 329
M  V30 398 9 334 329
M  V30 399 9 354 329
M  V30 400 9 347 329
M  V30 401 9 367 329
M  V30 402 9 360 329
M  V30 403 1 370 380
M  V30 404 2 370 377
M  V30 405 1 371 370
M  V30 406 2 372 371
M  V30 407 1 372 374
M  V30 408 1 373 371
M  V30 409 2 374 376
M  V30 410 1 375 372
M  V30 411 1 376 377
M  V30 412 1 376 378
M  V30 413 1 377 379
M  V30 414 2 381 375
M  V30 415 1 382 375
M  V30 416 1 383 393
M  V30 417 2 383 390
M  V30 418 1 384 383
M  V30 419 2 385 384
M  V30 420 1 385 387
M  V30 421 1 386 384
M  V30 422 2 387 389
M  V30 423 1 388 385
M  V30 424 1 389 390
M  V30 425 1 389 391
M  V30 426 1 390 392
M  V30 427 2 394 388
M  V30 428 1 395 388
M  V30 429 1 396 406
M  V30 430 2 396 403
M  V30 431 1 397 396
M  V30 432 2 398 397
M  V30 433 1 398 400
M  V30 434 1 399 397
M  V30 435 2 400 402
M  V30 436 1 401 398
M  V30 437 1 402 403
M  V30 438 1 402 404
M  V30 439 1 403 405
M  V30 440 2 407 401
M  V30 441 1 408 401
M  V30 442 9 381 369
M  V30 443 9 374 369
M  V30 444 9 394 369
M  V30 445 9 387 369
M  V30 446 9 407 369
M  V30 447 9 400 369
M  V30 448 1 410 420
M  V30 449 2 410 417
M  V30 450 1 411 410
M  V30 451 2 412 411
M  V30 452 1 412 414
M  V30 453 1 413 411
M  V30 454 2 414 416
M  V30 455 1 415 412
M  V30 456 1 416 417
M  V30 457 1 416 418
M  V30 458 1 417 419
M  V30 459 2 421 415
M  V30 460 1 422 415
M  V30 461 1 423 433
M  V30 462 2 423 430
M  V30 463 1 424 423
M  V30 464 2 425 424
M  V30 465 1 425 427
M  V30 466 1 426 424
M  V30 467 2 427 429
M  V30 468 1 428 425
M  V30 469 1 429 430
M  V30 470 1 429 431
M  V30 471 1 430 432
M  V30 472 2 434 428
M  V30 473 1 435 428
M  V30 474 1 436 446
M  V30 475 2 436 443
M  V30 476 1 437 436
M  V30 477 2 438 437
M  V30 478 1 438 440
M  V30 479 1 439 437
M  V30 480 2 440 442
M  V30 481 1 441 438
M  V30 482 1 442 443
M  V30 483 1 442 444
M  V30 484 1 443 445
M  V30 485 2 447 441
M  V30 486 1 448 441
M  V30 487 9 421 409
M  V30 488 9 414 409
M  V30 489 9 434 409
M  V30 490 9 427 409
M  V30 491 9 447 409
M  V30 492 9 440 409
M  V30 493 1 450 460
M  V30 494 2 450 457
M  V30 495 1 451 450
M  V30 496 2 452 451
M  V30 497 1 452 454
M  V30 498 1 453 451
M  V30 499 2 454 456
M  V30 500 1 455 452
M  V30 501 1 456 457
M  V30 502 1 456 458
M  V30 503 1 457 459
M  V30 504 2 461 455
M  V30 505 1 462 455
M  V30 506 1 463 473
M  V30 507 2 463 470
M  V30 508 1 464 463
M  V30 509 2 465 464
M  V30 510 1 465 467
M  V30 511 1 466 464
M  V30 512 2 467 469
M  V30 513 1 468 465
M  V30 514 1 469 470
M  V30 515 1 469 471
M  V30 516 1 470 472
M  V30 517 2 474 468
M  V30 518 1 475 468
M  V30 519 1 476 486
M  V30 520 2 476 483
M  V30 521 1 477 476
M  V30 522 2 478 477
M  V30 523 1 478 480
M  V30 524 1 479 477
M  V30 525 2 480 482
M  V30 526 1 481 478
M  V30 527 1 482 483
M  V30 528 1 482 484
M  V30 529 1 483 485
M  V30 530 2 487 481
M  V30 531 1 488 481
M  V30 532 9 461 449
M  V30 533 9 454 449
M  V30 534 9 474 449
M  V30 535 9 467 449
M  V30 536 9 487 449
M  V30 537 9 480 449
M  V30 538 1 490 500
M  V30 539 2 490 497
M  V30 540 1 491 490
M  V30 541 2 492 491
M  V30 542 1 492 494
M  V30 543 1 493 491
M  V30 544 2 494 496
M  V30 545 1 495 492
M  V30 546 1 496 497
M  V30 547 1 496 498
M  V30 548 1 497 499
M  V30 549 2 501 495
M  V30 550 1 502 495
M  V30 551 1 503 513
M  V30 552 2 503 510
M  V30 553 1 504 503
M  V30 554 2 505 504
M  V30 555 1 505 507
M  V30 556 1 506 504
M  V30 557 2 507 509
M  V30 558 1 508 505
M  V30 559 1 509 510
M  V30 560 1 509 511
M  V30 561 1 510 512
M  V30 562 2 514 508
M  V30 563 1 515 508
M  V30 564 1 516 526
M  V30 565 2 516 523
M  V30 566 1 517 516
M  V30 567 2 518 517
M  V30 568 1 518 520
M  V30 569 1 519 517
M  V30 570 2 520 522
M  V30 571 1 521 518
M  V30 572 1 522 523
M  V30 573 1 522 524
M  V30 574 1 523 525
M  V30 575 2 527 521
M  V30 576 1 528 521
M  V30 577 9 501 489
M  V30 578 9 494 489
M  V30 579 9 514 489
M  V30 580 9 507 489
M  V30 581 9 527 489
M  V30 582 9 520 489
M  V30 583 1 530 540
M  V30 584 2 530 537
M  V30 585 1 531 530
M  V30 586 2 532 531
M  V30 587 1 532 534
M  V30 588 1 533 531
M  V30 589 2 534 536
M  V30 590 1 535 532
M  V30 591 1 536 537
M  V30 592 1 536 538
M  V30 593 1 537 539
M  V30 594 2 541 535
M  V30 595 1 542 535
M  V30 596 1 543 553
M  V30 597 2 543 550
M  V30 598 1 544 543
M  V30 599 2 545 544
M  V30 600 1 545 547
M  V30 601 1 546 544
M  V30 602 2 547 549
M  V30 603 1 548 545
M  V30 604 1 549 550
M  V30 605 1 549 551
M  V30 606 1 550 552
M  V30 607 2 554 548
M  V30 608 1 555 548
M  V30 609 1 556 566
M  V30 610 2 556 563
M  V30 611 1 557 556
M  V30 612 2 558 557
M  V30 613 1 558 560
M  V30 614 1 559 557
M  V30 615 2 560 562
M  V30 616 1 561 558
M  V30 617 1 562 563
M  V30 618 1 562 564
M  V30 619 1 563 565
M  V30 620 2 567 561
M  V30 621 1 568 561
M  V30 622 9 541 529
M  V30 623 9 534 529
M  V30 624 9 567 529
M  V30 625 9 560 529
M  V30 626 9 554 529
M  V30 627 9 547 529
M  V30 628 1 570 580
M  V30 629 2 570 577
M  V30 630 1 571 570
M  V30 631 2 572 571
M  V30 632 1 572 574
M  V30 633 1 573 571
M  V30 634 2 574 576
M  V30 635 1 575 572
M  V30 636 1 576 577
M  V30 637 1 576 578
M  V30 638 1 577 579
M  V30 639 2 581 575
M  V30 640 1 582 575
M  V30 641 1 583 593
M  V30 642 2 583 590
M  V30 643 1 584 583
M  V30 644 2 585 584
M  V30 645 1 585 587
M  V30 646 1 586 584
M  V30 647 2 587 589
M  V30 648 1 588 585
M  V30 649 1 589 590
M  V30 650 1 589 591
M  V30 651 1 590 592
M  V30 652 2 594 588
M  V30 653 1 595 588
M  V30 654 1 596 606
M  V30 655 2 596 603
M  V30 656 1 597 596
M  V30 657 2 598 597
M  V30 658 1 598 600
M  V30 659 1 599 597
M  V30 660 2 600 602
M  V30 661 1 601 598
M  V30 662 1 602 603
M  V30 663 1 602 604
M  V30 664 1 603 605
M  V30 665 2 607 601
M  V30 666 1 608 601
M  V30 667 9 581 569
M  V30 668 9 574 569
M  V30 669 9 607 569
M  V30 670 9 600 569
M  V30 671 9 594 569
M  V30 672 9 587 569
M  V30 673 1 18 301
M  V30 674 1 26 541
M  V30 675 1 1 341
M  V30 676 1 11 381
M  V30 677 1 59 421
M  V30 678 1 66 461
M  V30 679 1 74 567
M  V30 680 1 49 327
M  V30 681 1 114 434
M  V30 682 1 122 314
M  V30 683 1 97 407
M  V30 684 1 107 581
M  V30 685 1 162 394
M  V30 686 1 170 367
M  V30 687 1 145 501
M  V30 688 1 155 607
M  V30 689 1 203 474
M  V30 690 1 210 447
M  V30 691 1 218 594
M  V30 692 1 193 527
M  V30 693 1 251 554
M  V30 694 1 258 487
M  V30 695 1 266 514
M  V30 696 1 241 354
M  V30 END BOND
M  V30 END CTAB
M  END

$$$$
