
     RDKit          3D

  0  0  0  0  0  0  0  0  0  0999 V3000
M  V30 BEGIN CTAB
M  V30 COUNTS 632 720 0 0 0
M  V30 BEGIN ATOM
M  V30 1 C 5.3132 4.1692 5.7297 0
M  V30 2 C 5.8641 2.9769 5.2381 0
M  V30 3 C 5.1783 1.7951 5.3709 0
M  V30 4 C 3.9245 1.7612 6.0015 0
M  V30 5 N 3.3152 0.5285 6.2270 0
M  V30 6 C 4.1248 -0.5288 6.6275 0
M  V30 7 C 5.2086 -0.2931 7.4885 0
M  V30 8 C 6.0864 -1.2972 7.8143 0
M  V30 9 C 5.9238 -2.5820 7.2683 0
M  V30 10 C 4.7873 -2.8287 6.4885 0
M  V30 11 C 3.8966 -1.8314 6.1691 0
M  V30 12 C 1.9173 0.4103 6.1572 0
M  V30 13 C 1.2109 -0.4182 7.0313 0
M  V30 14 C -0.1708 -0.4263 7.0202 0
M  V30 15 C -0.8669 0.4055 6.1434 0
M  V30 16 N -2.2616 0.5660 6.2097 0
M  V30 17 C -3.2026 -0.4116 6.3613 0
M  V30 18 C -2.9671 -1.7582 6.0317 0
M  V30 19 C -4.0056 -2.6570 6.0172 0
M  V30 20 C -5.3242 -2.2736 6.3157 0
M  V30 21 C -5.5216 -0.9618 6.7905 0
M  V30 22 C -4.4943 -0.0584 6.8014 0
M  V30 23 C -2.7148 1.9140 6.0831 0
M  V30 24 C -3.2613 2.3258 4.8696 0
M  V30 25 C -3.7249 3.6154 4.7270 0
M  V30 26 C -3.6728 4.4940 5.8090 0
M  V30 27 C -3.0812 4.0954 7.0071 0
M  V30 28 C -2.5931 2.8087 7.1405 0
M  V30 29 C -0.1572 1.1804 5.2213 0
M  V30 30 C 1.2190 1.1727 5.2180 0
M  V30 31 C 3.3225 2.9687 6.3768 0
M  V30 32 C 4.0090 4.1531 6.2366 0
M  V30 33 H 6.8137 2.9903 4.7283 0
M  V30 34 H 5.6134 0.8802 5.0019 0
M  V30 35 H 5.3463 0.6872 7.9176 0
M  V30 36 H 6.8754 -1.0904 8.5194 0
M  V30 37 H 4.6552 -3.8268 6.1106 0
M  V30 38 H 3.0487 -2.0402 5.5362 0
M  V30 39 H 1.7423 -1.0163 7.7544 0
M  V30 40 H -0.7080 -1.0308 7.7334 0
M  V30 41 H -1.9780 -2.0739 5.7425 0
M  V30 42 H -3.8286 -3.6773 5.7207 0
M  V30 43 H -6.4759 -0.6691 7.1966 0
M  V30 44 H -4.6681 0.9384 7.1728 0
M  V30 45 H -3.3150 1.6358 4.0440 0
M  V30 46 H -4.1083 3.9540 3.7808 0
M  V30 47 H -3.0625 4.7733 7.8453 0
M  V30 48 H -2.1505 2.4904 8.0707 0
M  V30 49 H -0.6873 1.7893 4.5084 0
M  V30 50 H 1.7612 1.7620 4.4968 0
M  V30 51 H 2.3458 2.9648 6.8329 0
M  V30 52 H 3.5831 5.0748 6.5960 0
M  V30 53 C 6.3275 5.8033 2.8338 0
M  V30 54 C 5.1448 5.1206 2.5458 0
M  V30 55 C 5.1600 4.0572 1.6624 0
M  V30 56 C 6.3654 3.6187 1.1176 0
M  V30 57 N 6.3354 2.6341 0.0881 0
M  V30 58 C 6.2904 3.0895 -1.2311 0
M  V30 59 C 7.0566 4.1747 -1.6620 0
M  V30 60 C 6.9917 4.5989 -2.9699 0
M  V30 61 C 6.1387 3.9806 -3.8884 0
M  V30 62 C 5.3521 2.9039 -3.4505 0
M  V30 63 C 5.4317 2.4658 -2.1490 0
M  V30 64 C 6.4867 1.2712 0.3363 0
M  V30 65 C 7.1560 0.4857 -0.6088 0
M  V30 66 C 7.2664 -0.8718 -0.4348 0
M  V30 67 C 6.7006 -1.4913 0.6843 0
M  V30 68 N 6.7361 -2.8880 0.7531 0
M  V30 69 C 6.7793 -3.6239 -0.4440 0
M  V30 70 C 5.8227 -3.4383 -1.4451 0
M  V30 71 C 5.7536 -4.3231 -2.5001 0
M  V30 72 C 6.6371 -5.4055 -2.5820 0
M  V30 73 C 7.6907 -5.4883 -1.6591 0
M  V30 74 C 7.7527 -4.6169 -0.5996 0
M  V30 75 C 6.7518 -3.6473 1.9097 0
M  V30 76 C 6.1530 -4.9199 1.8659 0
M  V30 77 C 6.2102 -5.7644 2.9424 0
M  V30 78 C 6.8283 -5.3556 4.1347 0
M  V30 79 C 7.3643 -4.0636 4.2019 0
M  V30 80 C 7.3360 -3.2240 3.1097 0
M  V30 81 C 6.0728 -0.7052 1.6529 0
M  V30 82 C 5.9782 0.6636 1.4866 0
M  V30 83 C 7.5612 4.2045 1.5263 0
M  V30 84 C 7.5426 5.3111 2.3577 0
M  V30 85 H 4.2225 5.4785 2.9723 0
M  V30 86 H 4.2372 3.5778 1.3748 0
M  V30 87 H 7.7388 4.6601 -0.9832 0
M  V30 88 H 7.6563 5.3721 -3.3131 0
M  V30 89 H 4.6443 2.4510 -4.1262 0
M  V30 90 H 4.8169 1.6452 -1.8155 0
M  V30 91 H 7.6100 0.9508 -1.4685 0
M  V30 92 H 7.8103 -1.4609 -1.1554 0
M  V30 93 H 5.1004 -2.6433 -1.3490 0
M  V30 94 H 4.9614 -4.2279 -3.2242 0
M  V30 95 H 8.4681 -6.2241 -1.7917 0
M  V30 96 H 8.5477 -4.7060 0.1238 0
M  V30 97 H 5.6290 -5.2379 0.9795 0
M  V30 98 H 5.7160 -6.7217 2.9009 0
M  V30 99 H 7.8612 -3.7558 5.1059 0
M  V30 100 H 7.8093 -2.2572 3.1671 0
M  V30 101 H 5.6303 -1.1757 2.5156 0
M  V30 102 H 5.4851 1.2633 2.2340 0
M  V30 103 H 8.5053 3.8200 1.1713 0
M  V30 104 H 8.4680 5.7830 2.6511 0
M  V30 105 C 4.7744 7.3216 -3.0855 0
M  V30 106 C 4.9920 6.9282 -1.7575 0
M  V30 107 C 3.9473 6.8182 -0.8767 0
M  V30 108 C 2.6442 7.1875 -1.2535 0
M  V30 109 N 1.6369 7.1739 -0.3077 0
M  V30 110 C 1.9788 7.3219 1.0476 0
M  V30 111 C 2.9623 8.2400 1.4310 0
M  V30 112 C 3.3892 8.2972 2.7358 0
M  V30 113 C 2.8185 7.4646 3.7033 0
M  V30 114 C 1.7747 6.6064 3.3403 0
M  V30 115 C 1.3690 6.5269 2.0228 0
M  V30 116 C 0.2625 7.1542 -0.6200 0
M  V30 117 C -0.5906 8.0125 0.0784 0
M  V30 118 C -1.9531 7.9371 -0.1024 0
M  V30 119 C -2.4937 6.9938 -0.9792 0
M  V30 120 N -3.8896 6.8217 -1.0362 0
M  V30 121 C -4.6454 6.9168 0.1229 0
M  V30 122 C -4.1360 6.4996 1.3612 0
M  V30 123 C -4.9377 6.5210 2.4767 0
M  V30 124 C -6.2752 6.9449 2.4188 0
M  V30 125 C -6.7569 7.4250 1.1886 0
M  V30 126 C -5.9593 7.4100 0.0725 0
M  V30 127 C -4.5751 6.6225 -2.2374 0
M  V30 128 C -5.6185 5.6859 -2.2652 0
M  V30 129 C -6.4349 5.5834 -3.3641 0
M  V30 130 C -6.2201 6.4030 -4.4809 0
M  V30 131 C -5.1125 7.2553 -4.4929 0
M  V30 132 C -4.2937 7.3630 -3.3871 0
M  V30 133 C -1.6409 6.1830 -1.7294 0
M  V30 134 C -0.2719 6.2615 -1.5498 0
M  V30 135 C 2.4225 7.5588 -2.5873 0
M  V30 136 C 3.4647 7.6046 -3.4873 0
M  V30 137 H 5.9839 6.6427 -1.4497 0
M  V30 138 H 4.1427 6.4500 0.1174 0
M  V30 139 H 3.3882 8.9085 0.7000 0
M  V30 140 H 4.1325 9.0164 3.0303 0
M  V30 141 H 1.3411 5.9517 4.0796 0
M  V30 142 H 0.6010 5.8270 1.7352 0
M  V30 143 H -0.1812 8.7417 0.7588 0
M  V30 144 H -2.6043 8.6084 0.4343 0
M  V30 145 H -3.1240 6.1359 1.4331 0
M  V30 146 H -4.5443 6.2014 3.4304 0
M  V30 147 H -7.7589 7.8074 1.0885 0
M  V30 148 H -6.3527 7.7978 -0.8537 0
M  V30 149 H -5.7917 5.0555 -1.4081 0
M  V30 150 H -7.2249 4.8510 -3.3872 0
M  V30 151 H -4.9605 7.8960 -5.3449 0
M  V30 152 H -3.4770 8.0670 -3.3855 0
M  V30 153 H -2.0584 5.4653 -2.4165 0
M  V30 154 H 0.3839 5.6007 -2.0926 0
M  V30 155 H 1.4361 7.8537 -2.9065 0
M  V30 156 H 3.2875 7.9350 -4.4959 0
M  V30 157 C -6.8133 2.9879 4.5461 0
M  V30 158 C -7.2079 1.6568 4.7872 0
M  V30 159 C -7.1475 0.7138 3.7975 0
M  V30 160 C -6.7010 1.0374 2.5001 0
M  V30 161 N -6.4940 0.0391 1.5913 0
M  V30 162 C -6.4592 -1.3123 2.0588 0
M  V30 163 C -7.5838 -2.1225 1.9386 0
M  V30 164 C -7.5676 -3.4035 2.4584 0
M  V30 165 C -6.4202 -3.8837 3.0912 0
M  V30 166 C -5.2681 -3.0987 3.1327 0
M  V30 167 C -5.2909 -1.8145 2.6289 0
M  V30 168 C -6.3937 0.1886 0.1952 0
M  V30 169 C -7.2210 1.0522 -0.5234 0
M  V30 170 C -7.1732 1.0676 -1.9037 0
M  V30 171 C -6.3045 0.2169 -2.5889 0
M  V30 172 N -6.3320 0.1497 -3.9892 0
M  V30 173 C -6.1886 -1.0432 -4.6781 0
M  V30 174 C -6.4821 -2.2911 -4.1097 0
M  V30 175 C -6.3764 -3.4400 -4.8597 0
M  V30 176 C -6.0177 -3.3831 -6.2113 0
M  V30 177 C -5.6627 -2.1432 -6.7622 0
M  V30 178 C -5.7182 -1.0038 -6.0024 0
M  V30 179 C -6.6129 1.2845 -4.7702 0
M  V30 180 C -5.8050 2.4213 -4.6991 0
M  V30 181 C -5.9332 3.4111 -5.6521 0
M  V30 182 C -6.8817 3.2942 -6.6742 0
M  V30 183 C -7.7883 2.2260 -6.6492 0
M  V30 184 C -7.6450 1.2283 -5.7146 0
M  V30 185 C -5.4242 -0.5917 -1.8671 0
M  V30 186 C -5.4767 -0.6122 -0.4913 0
M  V30 187 C -6.4333 2.3913 2.2227 0
M  V30 188 C -6.5109 3.3349 3.2174 0
M  V30 189 H -7.6052 1.3704 5.7465 0
M  V30 190 H -7.4604 -0.2956 4.0096 0
M  V30 191 H -8.4787 -1.7406 1.4735 0
M  V30 192 H -8.4606 -4.0083 2.4353 0
M  V30 193 H -4.3672 -3.5189 3.5445 0
M  V30 194 H -4.4088 -1.1972 2.6779 0
M  V30 195 H -7.9421 1.6670 -0.0085 0
M  V30 196 H -7.8505 1.6989 -2.4564 0
M  V30 197 H -6.8366 -2.3518 -3.0937 0
M  V30 198 H -6.6409 -4.3936 -4.4345 0
M  V30 199 H -5.2936 -2.0882 -7.7738 0
M  V30 200 H -5.3996 -0.0692 -6.4341 0
M  V30 201 H -5.0427 2.4911 -3.9398 0
M  V30 202 H -5.2471 4.2427 -5.6746 0
M  V30 203 H -8.6055 2.1930 -7.3527 0
M  V30 204 H -8.3210 0.3876 -5.7199 0
M  V30 205 H -4.7069 -1.2030 -2.3894 0
M  V30 206 H -4.8062 -1.2530 0.0560 0
M  V30 207 H -6.1280 2.6855 1.2324 0
M  V30 208 H -6.2957 4.3685 2.9981 0
M  V30 209 C -2.4756 -5.3826 -6.7492 0
M  V30 210 C -1.2321 -5.5731 -6.1277 0
M  V30 211 C -0.3400 -4.5437 -5.9930 0
M  V30 212 C -0.6147 -3.2719 -6.5286 0
M  V30 213 N 0.3416 -2.2857 -6.4104 0
M  V30 214 C 1.6883 -2.6893 -6.2920 0
M  V30 215 C 2.1969 -3.6707 -7.1471 0
M  V30 216 C 3.4762 -4.1431 -6.9743 0
M  V30 217 C 4.2878 -3.6322 -5.9583 0
M  V30 218 C 3.8078 -2.5927 -5.1555 0
M  V30 219 C 2.5146 -2.1345 -5.3126 0
M  V30 220 C 0.0990 -0.9040 -6.4972 0
M  V30 221 C 1.0592 -0.1021 -7.1211 0
M  V30 222 C 0.9180 1.2656 -7.1457 0
M  V30 223 C -0.1961 1.8703 -6.5582 0
M  V30 224 N -0.2732 3.2677 -6.5425 0
M  V30 225 C 0.9277 4.0154 -6.5844 0
M  V30 226 C 1.8239 4.0104 -5.5144 0
M  V30 227 C 2.8943 4.8843 -5.5124 0
M  V30 228 C 3.0950 5.7517 -6.5900 0
M  V30 229 C 2.2569 5.6700 -7.7098 0
M  V30 230 C 1.1746 4.8238 -7.6971 0
M  V30 231 C -1.4201 4.0138 -6.7527 0
M  V30 232 C -1.4409 5.3303 -6.2585 0
M  V30 233 C -2.4764 6.1775 -6.5550 0
M  V30 234 C -3.5593 5.7325 -7.3277 0
M  V30 235 C -3.5838 4.3939 -7.7400 0
M  V30 236 C -2.5340 3.5462 -7.4613 0
M  V30 237 C -1.1692 1.0711 -5.9543 0
M  V30 238 C -1.0214 -0.3028 -5.9198 0
M  V30 239 C -1.8560 -3.0781 -7.1551 0
M  V30 240 C -2.7650 -4.1086 -7.2527 0
M  V30 241 H -1.0034 -6.5252 -5.6814 0
M  V30 242 H 0.5783 -4.7238 -5.4576 0
M  V30 243 H 1.5845 -4.0590 -7.9453 0
M  V30 244 H 3.8776 -4.8755 -7.6520 0
M  V30 245 H 4.4298 -2.1847 -4.3747 0
M  V30 246 H 2.1287 -1.3640 -4.6641 0
M  V30 247 H 1.9086 -0.5581 -7.6032 0
M  V30 248 H 1.6595 1.8706 -7.6419 0
M  V30 249 H 1.6431 3.3601 -4.6732 0
M  V30 250 H 3.5436 4.9664 -4.6540 0
M  V30 251 H 2.4762 6.2485 -8.5936 0
M  V30 252 H 0.5144 4.7810 -8.5491 0
M  V30 253 H -0.6294 5.6858 -5.6449 0
M  V30 254 H -2.4865 7.1769 -6.1521 0
M  V30 255 H -4.4049 4.0556 -8.3490 0
M  V30 256 H -2.5455 2.5390 -7.8449 0
M  V30 257 H -2.0212 1.5335 -5.4839 0
M  V30 258 H -1.7553 -0.9106 -5.4163 0
M  V30 259 H -2.0849 -2.1250 -7.6036 0
M  V30 260 H -3.6891 -3.9626 -7.7831 0
M  V30 261 C -3.3554 -6.1199 5.8454 0
M  V30 262 C -2.1246 -5.6709 6.3414 0
M  V30 263 C -0.9849 -5.7972 5.5867 0
M  V30 264 C -1.0168 -6.4371 4.3373 0
M  V30 265 N 0.1620 -6.5781 3.6120 0
M  V30 266 C 1.3478 -6.6845 4.3401 0
M  V30 267 C 1.3839 -7.4714 5.5009 0
M  V30 268 C 2.4197 -7.3542 6.3947 0
M  V30 269 C 3.4606 -6.4377 6.1627 0
M  V30 270 C 3.5208 -5.8243 4.9048 0
M  V30 271 C 2.4822 -5.9389 4.0052 0
M  V30 272 C 0.1481 -6.5736 2.2068 0
M  V30 273 C 1.0216 -7.3879 1.4838 0
M  V30 274 C 0.9500 -7.4366 0.1059 0
M  V30 275 C 0.0007 -6.6739 -0.5778 0
M  V30 276 N -0.1557 -6.7713 -1.9692 0
M  V30 277 C 0.8767 -6.9637 -2.8535 0
M  V30 278 C 2.1655 -6.4597 -2.6099 0
M  V30 279 C 3.1338 -6.5508 -3.5776 0
M  V30 280 C 2.8953 -7.1360 -4.8320 0
M  V30 281 C 1.6305 -7.7236 -5.0317 0
M  V30 282 C 0.6530 -7.6305 -4.0728 0
M  V30 283 C -1.4861 -6.7307 -2.4847 0
M  V30 284 C -1.9222 -5.5825 -3.1465 0
M  V30 285 C -3.1786 -5.5473 -3.7198 0
M  V30 286 C -4.0105 -6.6645 -3.6359 0
M  V30 287 C -3.5933 -7.7919 -2.9233 0
M  V30 288 C -2.3374 -7.8232 -2.3474 0
M  V30 289 C -0.8416 -5.8246 0.1433 0
M  V30 290 C -0.7601 -5.7659 1.5174 0
M  V30 291 C -2.2509 -6.8761 3.8405 0
M  V30 292 C -3.4032 -6.6949 4.5718 0
M  V30 293 H -2.0890 -5.1588 7.2898 0
M  V30 294 H -0.0600 -5.3900 5.9607 0
M  V30 295 H 0.5763 -8.1562 5.7086 0
M  V30 296 H 2.4409 -7.9832 7.2712 0
M  V30 297 H 4.3551 -5.1909 4.6574 0
M  V30 298 H 2.5114 -5.3929 3.0760 0
M  V30 299 H 1.7266 -8.0152 2.0063 0
M  V30 300 H 1.5998 -8.1040 -0.4380 0
M  V30 301 H 2.3813 -5.9712 -1.6737 0
M  V30 302 H 4.1173 -6.1547 -3.3957 0
M  V30 303 H 1.4074 -8.2694 -5.9336 0
M  V30 304 H -0.2968 -8.1163 -4.2371 0
M  V30 305 H -1.2699 -4.7264 -3.2117 0
M  V30 306 H -3.5405 -4.6667 -4.2270 0
M  V30 307 H -4.2246 -8.6659 -2.8811 0
M  V30 308 H -2.0051 -8.7052 -1.8226 0
M  V30 309 H -1.5552 -5.2083 -0.3778 0
M  V30 310 H -1.3989 -5.0923 2.0643 0
M  V30 311 H -2.2988 -7.3808 2.8894 0
M  V30 312 H -4.3463 -7.0491 4.1930 0
M  V30 313 Zn 5.4082 7.3564 5.5229 0 CHG=2
M  V30 314 C 10.1257 7.5889 6.7961 0
M  V30 315 C 9.4530 6.4263 6.4650 0
M  V30 316 C 8.0778 6.4843 6.2305 0
M  V30 317 H 9.9806 5.4882 6.3961 0
M  V30 318 N 7.3919 7.6380 6.2911 0
M  V30 319 C 7.3019 5.2984 5.9992 0
M  V30 320 C 8.0368 8.7366 6.6517 0
M  V30 321 C 9.3983 8.7664 6.9121 0
M  V30 322 H 7.4479 9.6354 6.7500 0
M  V30 323 H 9.8751 9.6885 7.2025 0
M  V30 324 H 11.1891 7.5824 6.9793 0
M  V30 325 N 6.0289 5.3558 5.8071 0
M  V30 326 H 7.8293 4.3532 6.0798 0
M  V30 327 C 3.0021 7.9262 9.7150 0
M  V30 328 C 2.3708 7.8174 8.4847 0
M  V30 329 C 3.1515 7.6550 7.3420 0
M  V30 330 H 1.2959 7.8642 8.4147 0
M  V30 331 N 4.4953 7.5883 7.4001 0
M  V30 332 C 2.5774 7.5780 6.0152 0
M  V30 333 C 5.0914 7.6882 8.5757 0
M  V30 334 C 4.3869 7.8611 9.7620 0
M  V30 335 H 6.1686 7.6269 8.5820 0
M  V30 336 H 4.9170 7.9427 10.6971 0
M  V30 337 H 2.4324 8.0594 10.6214 0
M  V30 338 N 3.3499 7.4982 4.9940 0
M  V30 339 H 1.4964 7.6383 5.9182 0
M  V30 340 C 7.0289 11.6495 4.0701 0
M  V30 341 C 7.3479 10.4531 3.4425 0
M  V30 342 C 6.6885 9.2937 3.8373 0
M  V30 343 H 8.0938 10.4241 2.6641 0
M  V30 344 N 5.7579 9.3000 4.8065 0
M  V30 345 C 6.8964 8.0178 3.1886 0
M  V30 346 C 5.4410 10.4452 5.3869 0
M  V30 347 C 6.0479 11.6495 5.0504 0
M  V30 348 H 4.6715 10.4010 6.1420 0
M  V30 349 H 5.7626 12.5625 5.5476 0
M  V30 350 H 7.5286 12.5650 3.7937 0
M  V30 351 N 6.2206 6.9985 3.5614 0
M  V30 352 H 7.5817 7.9873 2.3463 0
M  V30 353 Zn -6.4195 -5.2778 5.9318 0 CHG=2
M  V30 354 C -11.0336 -3.8982 5.3323 0
M  V30 355 C -9.9737 -3.0349 5.5307 0
M  V30 356 C -8.6885 -3.5606 5.7010 0
M  V30 357 H -10.1347 -1.9693 5.5653 0
M  V30 358 N -8.4552 -4.8845 5.6498 0
M  V30 359 C -7.5631 -2.7091 5.9409 0
M  V30 360 C -9.4804 -5.7053 5.4690 0
M  V30 361 C -10.7833 -5.2656 5.3070 0
M  V30 362 H -9.2579 -6.7598 5.4597 0
M  V30 363 H -11.5827 -5.9758 5.1715 0
M  V30 364 H -12.0381 -3.5249 5.2061 0
M  V30 365 N -6.3564 -3.1623 6.0844 0
M  V30 366 H -7.7811 -1.6483 5.9829 0
M  V30 367 C -6.8680 -6.0468 10.7300 0
M  V30 368 C -5.6990 -6.2441 10.0145 0
M  V30 369 C -5.6874 -5.9561 8.6487 0
M  V30 370 H -4.8138 -6.6197 10.5032 0
M  V30 371 N -6.7738 -5.4945 8.0076 0
M  V30 372 C -4.5079 -6.1575 7.8460 0
M  V30 373 C -7.8834 -5.3012 8.7000 0
M  V30 374 C -7.9827 -5.5611 10.0601 0
M  V30 375 H -8.7366 -4.9243 8.1583 0
M  V30 376 H -8.9109 -5.3905 10.5812 0
M  V30 377 H -6.9135 -6.2649 11.7860 0
M  V30 378 N -4.5284 -5.9573 6.5763 0
M  V30 379 H -3.6185 -6.5154 8.3575 0
M  V30 380 C -7.4838 -9.7222 4.1688 0
M  V30 381 C -7.3788 -8.5940 3.3673 0
M  V30 382 C -7.0221 -7.3851 3.9575 0
M  V30 383 H -7.5708 -8.6538 2.3080 0
M  V30 384 N -6.7712 -7.2796 5.2739 0
M  V30 385 C -6.9062 -6.1536 3.2033 0
M  V30 386 C -6.8688 -8.3571 6.0318 0
M  V30 387 C -7.2243 -9.6024 5.5257 0
M  V30 388 H -6.6603 -8.2305 7.0828 0
M  V30 389 H -7.2990 -10.4532 6.1836 0
M  V30 390 H -7.7647 -10.6756 3.7490 0
M  V30 391 N -6.4320 -5.1094 3.7658 0
M  V30 392 H -7.2252 -6.1596 2.1642 0
M  V30 393 Zn -6.4520 6.0398 5.4810 0 CHG=2
M  V30 394 C -4.4197 10.4510 6.2915 0
M  V30 395 C -3.6893 9.2720 6.3120 0
M  V30 396 C -4.3435 8.0735 6.0404 0
M  V30 397 H -2.6348 9.2849 6.5361 0
M  V30 398 N -5.6530 8.0224 5.7430 0
M  V30 399 C -3.6688 6.7973 6.0861 0
M  V30 400 C -6.3431 9.1492 5.7277 0
M  V30 401 C -5.7738 10.3878 6.0003 0
M  V30 402 H -7.3942 9.0725 5.4967 0
M  V30 403 H -6.3832 11.2771 5.9859 0
M  V30 404 H -3.9513 11.3995 6.5037 0
M  V30 405 N -4.2834 5.7477 5.6913 0
M  V30 406 H -2.6472 6.7626 6.4521 0
M  V30 407 C -6.0579 4.9482 10.1874 0
M  V30 408 C -6.2335 4.0222 9.1778 0
M  V30 409 C -6.3263 4.4653 7.8545 0
M  V30 410 H -6.3137 2.9715 9.4060 0
M  V30 411 N -6.2172 5.7683 7.5379 0
M  V30 412 C -6.5403 3.5503 6.7756 0
M  V30 413 C -6.0583 6.6499 8.5148 0
M  V30 414 C -5.9745 6.2941 9.8496 0
M  V30 415 H -5.9996 7.6845 8.2211 0
M  V30 416 H -5.8533 7.0517 10.6067 0
M  V30 417 H -5.9938 4.6389 11.2191 0
M  V30 418 N -6.6401 3.9313 5.5398 0
M  V30 419 H -6.5956 2.5054 7.0558 0
M  V30 420 C -11.1097 7.2894 6.0195 0
M  V30 421 C -10.3680 7.5190 4.8748 0
M  V30 422 C -9.0537 7.0469 4.8126 0
M  V30 423 H -10.7964 8.0571 4.0435 0
M  V30 424 N -8.4890 6.3834 5.8340 0
M  V30 425 C -8.2470 7.2506 3.6388 0
M  V30 426 C -9.2109 6.1546 6.9186 0
M  V30 427 C -10.5216 6.5847 7.0620 0
M  V30 428 H -8.7337 5.6061 7.7151 0
M  V30 429 H -11.0692 6.3785 7.9674 0
M  V30 430 H -12.1247 7.6473 6.1010 0
M  V30 431 N -7.0387 6.8070 3.5657 0
M  V30 432 H -8.7260 7.7986 2.8348 0
M  V30 433 Zn 6.1275 6.4848 -5.8746 0 CHG=2
M  V30 434 C 6.0550 3.8006 -9.9112 0
M  V30 435 C 5.9115 3.2758 -8.6377 0
M  V30 436 C 6.0507 4.1245 -7.5394 0
M  V30 437 H 5.6989 2.2283 -8.4965 0
M  V30 438 N 6.3036 5.4383 -7.6850 0
M  V30 439 C 5.9861 3.6423 -6.1820 0
M  V30 440 C 6.4556 5.9297 -8.9034 0
M  V30 441 C 6.3426 5.1519 -10.0481 0
M  V30 442 H 6.6767 6.9838 -8.9769 0
M  V30 443 H 6.4796 5.5992 -11.0196 0
M  V30 444 H 5.9547 3.1767 -10.7857 0
M  V30 445 N 6.1192 4.4603 -5.1962 0
M  V30 446 H 5.8925 2.5700 -6.0341 0
M  V30 447 C 10.5011 8.0704 -4.7438 0
M  V30 448 C 9.3669 8.3258 -3.9908 0
M  V30 449 C 8.1728 7.6899 -4.3340 0
M  V30 450 H 9.4024 9.0125 -3.1599 0
M  V30 451 N 8.1009 6.8351 -5.3711 0
M  V30 452 C 6.9619 7.8551 -3.5691 0
M  V30 453 C 9.1906 6.5839 -6.0785 0
M  V30 454 C 10.4160 7.1749 -5.8030 0
M  V30 455 H 9.0833 5.8810 -6.8902 0
M  V30 456 H 11.2822 6.9428 -6.4012 0
M  V30 457 H 11.4375 8.5532 -4.5099 0
M  V30 458 N 5.8426 7.3609 -3.9748 0
M  V30 459 H 7.0426 8.3827 -2.6229 0
M  V30 460 C 5.7402 10.9693 -7.9323 0
M  V30 461 C 4.6951 10.0749 -7.7755 0
M  V30 462 C 4.9567 8.8205 -7.2220 0
M  V30 463 H 3.6959 10.3426 -8.0809 0
M  V30 464 N 6.1832 8.4529 -6.8199 0
M  V30 465 C 3.9163 7.8337 -7.1029 0
M  V30 466 C 7.1768 9.3086 -6.9898 0
M  V30 467 C 7.0107 10.5727 -7.5410 0
M  V30 468 H 8.1622 8.9874 -6.6926 0
M  V30 469 H 7.8592 11.2267 -7.6620 0
M  V30 470 H 5.5766 11.9470 -8.3583 0
M  V30 471 N 4.1191 6.6949 -6.5422 0
M  V30 472 H 2.9481 8.1025 -7.5177 0
M  V30 473 Zn 5.9315 -6.3154 -5.6432 0 CHG=2
M  V30 474 C 7.2127 -10.9674 -4.7372 0
M  V30 475 C 7.1237 -9.9784 -3.7738 0
M  V30 476 C 6.8073 -8.6758 -4.1672 0
M  V30 477 H 7.3031 -10.2078 -2.7354 0
M  V30 478 N 6.5679 -8.3529 -5.4486 0
M  V30 479 C 6.7852 -7.6022 -3.2146 0
M  V30 480 C 6.6677 -9.3035 -6.3631 0
M  V30 481 C 6.9889 -10.6200 -6.0625 0
M  V30 482 H 6.4979 -9.0201 -7.3895 0
M  V30 483 H 7.0664 -11.3522 -6.8500 0
M  V30 484 H 7.4599 -11.9834 -4.4706 0
M  V30 485 N 6.4603 -6.3985 -3.5435 0
M  V30 486 H 7.0765 -7.8536 -2.1991 0
M  V30 487 C 10.2542 -4.0966 -5.1705 0
M  V30 488 C 9.0478 -3.4148 -5.2192 0
M  V30 489 C 7.8807 -4.1359 -5.4596 0
M  V30 490 H 9.0148 -2.3465 -5.0771 0
M  V30 491 N 7.8887 -5.4696 -5.6293 0
M  V30 492 C 6.5876 -3.5012 -5.5846 0
M  V30 493 C 9.0428 -6.1118 -5.5973 0
M  V30 494 C 10.2541 -5.4689 -5.3723 0
M  V30 495 H 9.0062 -7.1787 -5.7567 0
M  V30 496 H 11.1712 -6.0359 -5.3594 0
M  V30 497 H 11.1807 -3.5749 -4.9870 0
M  V30 498 N 5.5432 -4.2190 -5.7769 0
M  V30 499 H 6.5493 -2.4147 -5.5616 0
M  V30 500 C 5.5159 -7.5442 -10.2582 0
M  V30 501 C 4.5439 -7.7873 -9.3047 0
M  V30 502 C 4.7251 -7.2944 -8.0084 0
M  V30 503 H 3.6621 -8.3563 -9.5539 0
M  V30 504 N 5.8170 -6.5809 -7.6763 0
M  V30 505 C 3.7365 -7.4951 -6.9838 0
M  V30 506 C 6.7382 -6.3423 -8.5965 0
M  V30 507 C 6.6360 -6.8023 -9.9003 0
M  V30 508 H 7.5891 -5.7589 -8.2811 0
M  V30 509 H 7.4108 -6.5896 -10.6187 0
M  V30 510 H 5.4074 -7.9219 -11.2634 0
M  V30 511 N 3.8965 -7.0457 -5.7809 0
M  V30 512 H 2.8415 -8.0168 -7.3021 0
M  V30 513 Zn -5.4858 -6.5003 -6.4619 0 CHG=2
M  V30 514 C -6.7807 -6.6798 -11.1794 0
M  V30 515 C -6.7959 -5.5386 -10.3977 0
M  V30 516 C -6.3679 -5.6217 -9.0702 0
M  V30 517 H -7.1368 -4.6000 -10.8055 0
M  V30 518 N -5.9394 -6.7749 -8.5281 0
M  V30 519 C -6.3828 -4.4704 -8.2094 0
M  V30 520 C -5.9280 -7.8595 -9.2850 0
M  V30 521 C -6.3366 -7.8664 -10.6111 0
M  V30 522 H -5.5834 -8.7735 -8.8284 0
M  V30 523 H -6.3091 -8.7794 -11.1836 0
M  V30 524 H -7.1067 -6.6525 -12.2077 0
M  V30 525 N -6.0242 -4.5429 -6.9721 0
M  V30 526 H -6.7352 -3.5411 -8.6486 0
M  V30 527 C -9.8989 -7.5268 -4.6031 0
M  V30 528 C -8.7391 -7.4944 -3.8424 0
M  V30 529 C -7.5415 -7.1438 -4.4608 0
M  V30 530 H -8.7645 -7.7399 -2.7927 0
M  V30 531 N -7.4764 -6.8268 -5.7653 0
M  V30 532 C -6.2856 -7.1003 -3.7407 0
M  V30 533 C -8.5856 -6.8520 -6.4830 0
M  V30 534 C -9.8213 -7.1990 -5.9484 0
M  V30 535 H -8.4958 -6.5900 -7.5258 0
M  V30 536 H -10.6977 -7.2142 -6.5759 0
M  V30 537 H -10.8438 -7.8030 -4.1615 0
M  V30 538 N -5.2354 -6.6431 -4.3103 0
M  V30 539 H -6.2826 -7.4458 -2.7098 0
M  V30 540 C -4.1509 -11.1472 -6.8233 0
M  V30 541 C -3.3042 -10.0698 -7.0072 0
M  V30 542 C -3.7863 -8.7786 -6.7740 0
M  V30 543 H -2.2881 -10.2211 -7.3349 0
M  V30 544 N -5.0490 -8.5574 -6.3675 0
M  V30 545 C -2.9489 -7.6243 -6.9336 0
M  V30 546 C -5.8521 -9.5962 -6.1917 0
M  V30 547 C -5.4537 -10.9066 -6.4025 0
M  V30 548 H -6.8578 -9.3793 -5.8689 0
M  V30 549 H -6.1452 -11.7185 -6.2461 0
M  V30 550 H -3.8113 -12.1558 -7.0019 0
M  V30 551 N -3.3967 -6.4211 -6.7842 0
M  V30 552 H -1.9108 -7.8133 -7.1887 0
M  V30 553 Zn 6.5187 -5.7588 7.2697 0 CHG=2
M  V30 554 C 11.2483 -5.1878 8.3628 0
M  V30 555 C 10.3414 -4.1474 8.2661 0
M  V30 556 C 9.0229 -4.4297 7.8987 0
M  V30 557 H 10.6458 -3.1345 8.4783 0
M  V30 558 N 8.6120 -5.6802 7.6288 0
M  V30 559 C 8.0453 -3.3801 7.7798 0
M  V30 560 C 9.4888 -6.6666 7.7130 0
M  V30 561 C 10.8145 -6.4754 8.0760 0
M  V30 562 H 9.1307 -7.6581 7.4851 0
M  V30 563 H 11.4886 -7.3143 8.1361 0
M  V30 564 H 12.2714 -5.0056 8.6535 0
M  V30 565 N 6.8300 -3.6193 7.4201 0
M  V30 566 H 8.4082 -2.3754 7.9746 0
M  V30 567 C 5.0023 -5.5253 11.8910 0
M  V30 568 C 4.1676 -5.7574 10.8120 0
M  V30 569 C 4.7162 -5.8031 9.5279 0
M  V30 570 H 3.1104 -5.9094 10.9608 0
M  V30 571 N 6.0272 -5.6110 9.3101 0
M  V30 572 C 3.8945 -6.0808 8.3799 0
M  V30 573 C 6.8185 -5.3871 10.3464 0
M  V30 574 C 6.3580 -5.3388 11.6545 0
M  V30 575 H 7.8672 -5.2446 10.1364 0
M  V30 576 H 7.0459 -5.1638 12.4658 0
M  V30 577 H 4.6135 -5.4934 12.8970 0
M  V30 578 N 4.3556 -6.0912 7.1755 0
M  V30 579 H 2.8450 -6.2757 8.5858 0
M  V30 580 C 6.9720 -10.6041 7.0720 0
M  V30 581 C 7.0717 -9.7607 5.9797 0
M  V30 582 C 6.8686 -8.3904 6.1622 0
M  V30 583 H 7.3102 -10.1531 5.0039 0
M  V30 584 N 6.5732 -7.8720 7.3667 0
M  V30 585 C 6.9701 -7.4615 5.0695 0
M  V30 586 C 6.4766 -8.6855 8.4049 0
M  V30 587 C 6.6656 -10.0567 8.3118 0
M  V30 588 H 6.2419 -8.2317 9.3553 0
M  V30 589 H 6.5790 -10.6791 9.1877 0
M  V30 590 H 7.1295 -11.6665 6.9672 0
M  V30 591 N 6.8414 -6.1896 5.2452 0
M  V30 592 H 7.1800 -7.8838 4.0909 0
M  V30 593 Zn -6.6815 6.3251 -7.6532 0 CHG=2
M  V30 594 C -11.5589 6.1404 -7.2330 0
M  V30 595 C -10.6786 6.1296 -6.1642 0
M  V30 596 C -9.3089 6.2125 -6.4171 0
M  V30 597 H -11.0466 6.0651 -5.1525 0
M  V30 598 N -8.8172 6.2889 -7.6645 0
M  V30 599 C -8.3475 6.2571 -5.3446 0
M  V30 600 C -9.6657 6.3139 -8.6790 0
M  V30 601 C -11.0425 6.2410 -8.5174 0
M  V30 602 H -9.2415 6.4017 -9.6671 0
M  V30 603 H -11.6909 6.2672 -9.3782 0
M  V30 604 H -12.6246 6.0799 -7.0751 0
M  V30 605 N -7.0883 6.3757 -5.5725 0
M  V30 606 H -8.7467 6.2303 -4.3336 0
M  V30 607 C -6.1052 11.0199 -8.6341 0
M  V30 608 C -5.0629 10.1204 -8.4911 0
M  V30 609 C -5.3521 8.8072 -8.1134 0
M  V30 610 H -4.0451 10.4261 -8.6754 0
M  V30 611 N -6.6119 8.3959 -7.8815 0
M  V30 612 C -4.3172 7.8229 -7.9296 0
M  V30 613 C -7.6012 9.2641 -8.0099 0
M  V30 614 C -7.4007 10.5861 -8.3822 0
M  V30 615 H -8.5961 8.8995 -7.8061 0
M  V30 616 H -8.2381 11.2586 -8.4740 0
M  V30 617 H -5.9187 12.0402 -8.9317 0
M  V30 618 N -4.5997 6.5952 -7.6479 0
M  V30 619 H -3.2907 8.1634 -8.0349 0
M  V30 620 C -7.1875 5.2109 -12.3679 0
M  V30 621 C -7.3082 4.2992 -11.3320 0
M  V30 622 C -7.0508 4.7233 -10.0278 0
M  V30 623 H -7.6025 3.2807 -11.5300 0
M  V30 624 N -6.6823 5.9845 -9.7472 0
M  V30 625 C -7.1372 3.8203 -8.9085 0
M  V30 626 C -6.5530 6.8440 -10.7435 0
M  V30 627 C -6.7963 6.5087 -12.0692 0
M  V30 628 H -6.2452 7.8454 -10.4858 0
M  V30 629 H -6.6853 7.2476 -12.8462 0
M  V30 630 H -7.3905 4.9205 -13.3870 0
M  V30 631 N -6.8511 4.2151 -7.7182 0
M  V30 632 H -7.3975 2.7888 -9.1286 0
M  V30 END ATOM
M  V30 BEGIN BOND
M  V30 1 2 1 2
M  V30 2 1 2 3
M  V30 3 2 3 4
M  V30 4 1 4 5
M  V30 5 1 5 6
M  V30 6 2 6 7
M  V30 7 1 7 8
M  V30 8 2 8 9
M  V30 9 1 9 10
M  V30 10 2 10 11
M  V30 11 1 5 12
M  V30 12 2 12 13
M  V30 13 1 13 14
M  V30 14 2 14 15
M  V30 15 1 15 16
M  V30 16 1 16 17
M  V30 17 2 17 18
M  V30 18 1 18 19
M  V30 19 2 19 20
M  V30 20 1 20 21
M  V30 21 2 21 22
M  V30 22 1 16 23
M  V30 23 2 23 24
M  V30 24 1 24 25
M  V30 25 2 25 26
M  V30 26 1 26 27
M  V30 27 2 27 28
M  V30 28 1 15 29
M  V30 29 2 29 30
M  V30 30 1 4 31
M  V30 31 2 31 32
M  V30 32 1 32 1
M  V30 33 1 11 6
M  V30 34 1 30 12
M  V30 35 1 22 17
M  V30 36 1 28 23
M  V30 37 1 2 33
M  V30 38 1 3 34
M  V30 39 1 7 35
M  V30 40 1 8 36
M  V30 41 1 10 37
M  V30 42 1 11 38
M  V30 43 1 13 39
M  V30 44 1 14 40
M  V30 45 1 18 41
M  V30 46 1 19 42
M  V30 47 1 21 43
M  V30 48 1 22 44
M  V30 49 1 24 45
M  V30 50 1 25 46
M  V30 51 1 27 47
M  V30 52 1 28 48
M  V30 53 1 29 49
M  V30 54 1 30 50
M  V30 55 1 31 51
M  V30 56 1 32 52
M  V30 57 2 53 54
M  V30 58 1 54 55
M  V30 59 2 55 56
M  V30 60 1 56 57
M  V30 61 1 57 58
M  V30 62 2 58 59
M  V30 63 1 59 60
M  V30 64 2 60 61
M  V30 65 1 61 62
M  V30 66 2 62 63
M  V30 67 1 57 64
M  V30 68 2 64 65
M  V30 69 1 65 66
M  V30 70 2 66 67
M  V30 71 1 67 68
M  V30 72 1 68 69
M  V30 73 2 69 70
M  V30 74 1 70 71
M  V30 75 2 71 72
M  V30 76 1 72 73
M  V30 77 2 73 74
M  V30 78 1 68 75
M  V30 79 2 75 76
M  V30 80 1 76 77
M  V30 81 2 77 78
M  V30 82 1 78 79
M  V30 83 2 79 80
M  V30 84 1 67 81
M  V30 85 2 81 82
M  V30 86 1 56 83
M  V30 87 2 83 84
M  V30 88 1 84 53
M  V30 89 1 63 58
M  V30 90 1 82 64
M  V30 91 1 74 69
M  V30 92 1 80 75
M  V30 93 1 54 85
M  V30 94 1 55 86
M  V30 95 1 59 87
M  V30 96 1 60 88
M  V30 97 1 62 89
M  V30 98 1 63 90
M  V30 99 1 65 91
M  V30 100 1 66 92
M  V30 101 1 70 93
M  V30 102 1 71 94
M  V30 103 1 73 95
M  V30 104 1 74 96
M  V30 105 1 76 97
M  V30 106 1 77 98
M  V30 107 1 79 99
M  V30 108 1 80 100
M  V30 109 1 81 101
M  V30 110 1 82 102
M  V30 111 1 83 103
M  V30 112 1 84 104
M  V30 113 2 105 106
M  V30 114 1 106 107
M  V30 115 2 107 108
M  V30 116 1 108 109
M  V30 117 1 109 110
M  V30 118 2 110 111
M  V30 119 1 111 112
M  V30 120 2 112 113
M  V30 121 1 113 114
M  V30 122 2 114 115
M  V30 123 1 109 116
M  V30 124 2 116 117
M  V30 125 1 117 118
M  V30 126 2 118 119
M  V30 127 1 119 120
M  V30 128 1 120 121
M  V30 129 2 121 122
M  V30 130 1 122 123
M  V30 131 2 123 124
M  V30 132 1 124 125
M  V30 133 2 125 126
M  V30 134 1 120 127
M  V30 135 2 127 128
M  V30 136 1 128 129
M  V30 137 2 129 130
M  V30 138 1 130 131
M  V30 139 2 131 132
M  V30 140 1 119 133
M  V30 141 2 133 134
M  V30 142 1 108 135
M  V30 143 2 135 136
M  V30 144 1 136 105
M  V30 145 1 115 110
M  V30 146 1 134 116
M  V30 147 1 126 121
M  V30 148 1 132 127
M  V30 149 1 106 137
M  V30 150 1 107 138
M  V30 151 1 111 139
M  V30 152 1 112 140
M  V30 153 1 114 141
M  V30 154 1 115 142
M  V30 155 1 117 143
M  V30 156 1 118 144
M  V30 157 1 122 145
M  V30 158 1 123 146
M  V30 159 1 125 147
M  V30 160 1 126 148
M  V30 161 1 128 149
M  V30 162 1 129 150
M  V30 163 1 131 151
M  V30 164 1 132 152
M  V30 165 1 133 153
M  V30 166 1 134 154
M  V30 167 1 135 155
M  V30 168 1 136 156
M  V30 169 2 157 158
M  V30 170 1 158 159
M  V30 171 2 159 160
M  V30 172 1 160 161
M  V30 173 1 161 162
M  V30 174 2 162 163
M  V30 175 1 163 164
M  V30 176 2 164 165
M  V30 177 1 165 166
M  V30 178 2 166 167
M  V30 179 1 161 168
M  V30 180 2 168 169
M  V30 181 1 169 170
M  V30 182 2 170 171
M  V30 183 1 171 172
M  V30 184 1 172 173
M  V30 185 2 173 174
M  V30 186 1 174 175
M  V30 187 2 175 176
M  V30 188 1 176 177
M  V30 189 2 177 178
M  V30 190 1 172 179
M  V30 191 2 179 180
M  V30 192 1 180 181
M  V30 193 2 181 182
M  V30 194 1 182 183
M  V30 195 2 183 184
M  V30 196 1 171 185
M  V30 197 2 185 186
M  V30 198 1 160 187
M  V30 199 2 187 188
M  V30 200 1 188 157
M  V30 201 1 167 162
M  V30 202 1 186 168
M  V30 203 1 178 173
M  V30 204 1 184 179
M  V30 205 1 158 189
M  V30 206 1 159 190
M  V30 207 1 163 191
M  V30 208 1 164 192
M  V30 209 1 166 193
M  V30 210 1 167 194
M  V30 211 1 169 195
M  V30 212 1 170 196
M  V30 213 1 174 197
M  V30 214 1 175 198
M  V30 215 1 177 199
M  V30 216 1 178 200
M  V30 217 1 180 201
M  V30 218 1 181 202
M  V30 219 1 183 203
M  V30 220 1 184 204
M  V30 221 1 185 205
M  V30 222 1 186 206
M  V30 223 1 187 207
M  V30 224 1 188 208
M  V30 225 2 209 210
M  V30 226 1 210 211
M  V30 227 2 211 212
M  V30 228 1 212 213
M  V30 229 1 213 214
M  V30 230 2 214 215
M  V30 231 1 215 216
M  V30 232 2 216 217
M  V30 233 1 217 218
M  V30 234 2 218 219
M  V30 235 1 213 220
M  V30 236 2 220 221
M  V30 237 1 221 222
M  V30 238 2 222 223
M  V30 239 1 223 224
M  V30 240 1 224 225
M  V30 241 2 225 226
M  V30 242 1 226 227
M  V30 243 2 227 228
M  V30 244 1 228 229
M  V30 245 2 229 230
M  V30 246 1 224 231
M  V30 247 2 231 232
M  V30 248 1 232 233
M  V30 249 2 233 234
M  V30 250 1 234 235
M  V30 251 2 235 236
M  V30 252 1 223 237
M  V30 253 2 237 238
M  V30 254 1 212 239
M  V30 255 2 239 240
M  V30 256 1 240 209
M  V30 257 1 219 214
M  V30 258 1 238 220
M  V30 259 1 230 225
M  V30 260 1 236 231
M  V30 261 1 210 241
M  V30 262 1 211 242
M  V30 263 1 215 243
M  V30 264 1 216 244
M  V30 265 1 218 245
M  V30 266 1 219 246
M  V30 267 1 221 247
M  V30 268 1 222 248
M  V30 269 1 226 249
M  V30 270 1 227 250
M  V30 271 1 229 251
M  V30 272 1 230 252
M  V30 273 1 232 253
M  V30 274 1 233 254
M  V30 275 1 235 255
M  V30 276 1 236 256
M  V30 277 1 237 257
M  V30 278 1 238 258
M  V30 279 1 239 259
M  V30 280 1 240 260
M  V30 281 2 261 262
M  V30 282 1 262 263
M  V30 283 2 263 264
M  V30 284 1 264 265
M  V30 285 1 265 266
M  V30 286 2 266 267
M  V30 287 1 267 268
M  V30 288 2 268 269
M  V30 289 1 269 270
M  V30 290 2 270 271
M  V30 291 1 265 272
M  V30 292 2 272 273
M  V30 293 1 273 274
M  V30 294 2 274 275
M  V30 295 1 275 276
M  V30 296 1 276 277
M  V30 297 2 277 278
M  V30 298 1 278 279
M  V30 299 2 279 280
M  V30 300 1 280 281
M  V30 301 2 281 282
M  V30 302 1 276 283
M  V30 303 2 283 284
M  V30 304 1 284 285
M  V30 305 2 285 286
M  V30 306 1 286 287
M  V30 307 2 287 288
M  V30 308 1 275 289
M  V30 309 2 289 290
M  V30 310 1 264 291
M  V30 311 2 291 292
M  V30 312 1 292 261
M  V30 313 1 271 266
M  V30 314 1 290 272
M  V30 315 1 282 277
M  V30 316 1 288 283
M  V30 317 1 262 293
M  V30 318 1 263 294
M  V30 319 1 267 295
M  V30 320 1 268 296
M  V30 321 1 270 297
M  V30 322 1 271 298
M  V30 323 1 273 299
M  V30 324 1 274 300
M  V30 325 1 278 301
M  V30 326 1 279 302
M  V30 327 1 281 303
M  V30 328 1 282 304
M  V30 329 1 284 305
M  V30 330 1 285 306
M  V30 331 1 287 307
M  V30 332 1 288 308
M  V30 333 1 289 309
M  V30 334 1 290 310
M  V30 335 1 291 311
M  V30 336 1 292 312
M  V30 337 1 314 324
M  V30 338 2 314 321
M  V30 339 1 315 314
M  V30 340 2 316 315
M  V30 341 1 316 318
M  V30 342 1 317 315
M  V30 343 2 318 320
M  V30 344 1 319 316
M  V30 345 1 320 321
M  V30 346 1 320 322
M  V30 347 1 321 323
M  V30 348 2 325 319
M  V30 349 1 326 319
M  V30 350 1 327 337
M  V30 351 2 327 334
M  V30 352 1 328 327
M  V30 353 2 329 328
M  V30 354 1 329 331
M  V30 355 1 330 328
M  V30 356 2 331 333
M  V30 357 1 332 329
M  V30 358 1 333 334
M  V30 359 1 333 335
M  V30 360 1 334 336
M  V30 361 2 338 332
M  V30 362 1 339 332
M  V30 363 1 340 350
M  V30 364 2 340 347
M  V30 365 1 341 340
M  V30 366 2 342 341
M  V30 367 1 342 344
M  V30 368 1 343 341
M  V30 369 2 344 346
M  V30 370 1 345 342
M  V30 371 1 346 347
M  V30 372 1 346 348
M  V30 373 1 347 349
M  V30 374 2 351 345
M  V30 375 1 352 345
M  V30 376 9 325 313
M  V30 377 9 318 313
M  V30 378 9 338 313
M  V30 379 9 331 313
M  V30 380 9 351 313
M  V30 381 9 344 313
M  V30 382 1 354 364
M  V30 383 2 354 361
M  V30 384 1 355 354
M  V30 385 2 356 355
M  V30 386 1 356 358
M  V30 387 1 357 355
M  V30 388 2 358 360
M  V30 389 1 359 356
M  V30 390 1 360 361
M  V30 391 1 360 362
M  V30 392 1 361 363
M  V30 393 2 365 359
M  V30 394 1 366 359
M  V30 395 1 367 377
M  V30 396 2 367 374
M  V30 397 1 368 367
M  V30 398 2 369 368
M  V30 399 1 369 371
M  V30 400 1 370 368
M  V30 401 2 371 373
M  V30 402 1 372 369
M  V30 403 1 373 374
M  V30 404 1 373 375
M  V30 405 1 374 376
M  V30 406 2 378 372
M  V30 407 1 379 372
M  V30 408 1 380 390
M  V30 409 2 380 387
M  V30 410 1 381 380
M  V30 411 2 382 381
M  V30 412 1 382 384
M  V30 413 1 383 381
M  V30 414 2 384 386
M  V30 415 1 385 382
M  V30 416 1 386 387
M  V30 417 1 386 388
M  V30 418 1 387 389
M  V30 419 2 391 385
M  V30 420 1 392 385
M  V30 421 9 365 353
M  V30 422 9 358 353
M  V30 423 9 378 353
M  V30 424 9 371 353
M  V30 425 9 391 353
M  V30 426 9 384 353
M  V30 427 1 394 404
M  V30 428 2 394 401
M  V30 429 1 395 394
M  V30 430 2 396 395
M  V30 431 1 396 398
M  V30 432 1 397 395
M  V30 433 2 398 400
M  V30 434 1 399 396
M  V30 435 1 400 401
M  V30 436 1 400 402
M  V30 437 1 401 403
M  V30 438 2 405 399
M  V30 439 1 406 399
M  V30 440 1 407 417
M  V30 441 2 407 414
M  V30 442 1 408 407
M  V30 443 2 409 408
M  V30 444 1 409 411
M  V30 445 1 410 408
M  V30 446 2 411 413
M  V30 447 1 412 409
M  V30 448 1 413 414
M  V30 449 1 413 415
M  V30 450 1 414 416
M  V30 451 2 418 412
M  V30 452 1 419 412
M  V30 453 1 420 430
M  V30 454 2 420 427
M  V30 455 1 421 420
M  V30 456 2 422 421
M  V30 457 1 422 424
M  V30 458 1 423 421
M  V30 459 2 424 426
M  V30 460 1 425 422
M  V30 461 1 426 427
M  V30 462 1 426 428
M  V30 463 1 427 429
M  V30 464 2 431 425
M  V30 465 1 432 425
M  V30 466 9 405 393
M  V30 467 9 398 393
M  V30 468 9 418 393
M  V30 469 9 411 393
M  V30 470 9 431 393
M  V30 471 9 424 393
M  V30 472 1 434 444
M  V30 473 2 434 441
M  V30 474 1 435 434
M  V30 475 2 436 435
M  V30 476 1 436 438
M  V30 477 1 437 435
M  V30 478 2 438 440
M  V30 479 1 439 436
M  V30 480 1 440 441
M  V30 481 1 440 442
M  V30 482 1 441 443
M  V30 483 2 445 439
M  V30 484 1 446 439
M  V30 485 1 447 457
M  V30 486 2 447 454
M  V30 487 1 448 447
M  V30 488 2 449 448
M  V30 489 1 449 451
M  V30 490 1 450 448
M  V30 491 2 451 453
M  V30 492 1 452 449
M  V30 493 1 453 454
M  V30 494 1 453 455
M  V30 495 1 454 456
M  V30 496 2 458 452
M  V30 497 1 459 452
M  V30 498 1 460 470
M  V30 499 2 460 467
M  V30 500 1 461 460
M  V30 501 2 462 461
M  V30 502 1 462 464
M  V30 503 1 463 461
M  V30 504 2 464 466
M  V30 505 1 465 462
M  V30 506 1 466 467
M  V30 507 1 466 468
M  V30 508 1 467 469
M  V30 509 2 471 465
M  V30 510 1 472 465
M  V30 511 9 445 433
M  V30 512 9 438 433
M  V30 513 9 458 433
M  V30 514 9 451 433
M  V30 515 9 471 433
M  V30 516 9 464 433
M  V30 517 1 474 484
M  V30 518 2 474 481
M  V30 519 1 475 474
M  V30 520 2 476 475
M  V30 521 1 476 478
M  V30 522 1 477 475
M  V30 523 2 478 480
M  V30 524 1 479 476
M  V30 525 1 480 481
M  V30 526 1 480 482
M  V30 527 1 481 483
M  V30 528 2 485 479
M  V30 529 1 486 479
M  V30 530 1 487 497
M  V30 531 2 487 494
M  V30 532 1 488 487
M  V30 533 2 489 488
M  V30 534 1 489 491
M  V30 535 1 490 488
M  V30 536 2 491 493
M  V30 537 1 492 489
M  V30 538 1 493 494
M  V30 539 1 493 495
M  V30 540 1 494 496
M  V30 541 2 498 492
M  V30 542 1 499 492
M  V30 543 1 500 510
M  V30 544 2 500 507
M  V30 545 1 501 500
M  V30 546 2 502 501
M  V30 547 1 502 504
M  V30 548 1 503 501
M  V30 549 2 504 506
M  V30 550 1 505 502
M  V30 551 1 506 507
M  V30 552 1 506 508
M  V30 553 1 507 509
M  V30 554 2 511 505
M  V30 555 1 512 505
M  V30 556 9 485 473
M  V30 557 9 478 473
M  V30 558 9 498 473
M  V30 559 9 491 473
M  V30 560 9 511 473
M  V30 561 9 504 473
M  V30 562 1 514 524
M  V30 563 2 514 521
M  V30 564 1 515 514
M  V30 565 2 516 515
M  V30 566 1 516 518
M  V30 567 1 517 515
M  V30 568 2 518 520
M  V30 569 1 519 516
M  V30 570 1 520 521
M  V30 571 1 520 522
M  V30 572 1 521 523
M  V30 573 2 525 519
M  V30 574 1 526 519
M  V30 575 1 527 537
M  V30 576 2 527 534
M  V30 577 1 528 527
M  V30 578 2 529 528
M  V30 579 1 529 531
M  V30 580 1 530 528
M  V30 581 2 531 533
M  V30 582 1 532 529
M  V30 583 1 533 534
M  V30 584 1 533 535
M  V30 585 1 534 536
M  V30 586 2 538 532
M  V30 587 1 539 532
M  V30 588 1 540 550
M  V30 589 2 540 547
M  V30 590 1 541 540
M  V30 591 2 542 541
M  V30 592 1 542 544
M  V30 593 1 543 541
M  V30 594 2 544 546
M  V30 595 1 545 542
M  V30 596 1 546 547
M  V30 597 1 546 548
M  V30 598 1 547 549
M  V30 599 2 551 545
M  V30 600 1 552 545
M  V30 601 9 525 513
M  V30 602 9 518 513
M  V30 603 9 538 513
M  V30 604 9 531 513
M  V30 605 9 551 513
M  V30 606 9 544 513
M  V30 607 1 554 564
M  V30 608 2 554 561
M  V30 609 1 555 554
M  V30 610 2 556 555
M  V30 611 1 556 558
M  V30 612 1 557 555
M  V30 613 2 558 560
M  V30 614 1 559 556
M  V30 615 1 560 561
M  V30 616 1 560 562
M  V30 617 1 561 563
M  V30 618 2 565 559
M  V30 619 1 566 559
M  V30 620 1 567 577
M  V30 621 2 567 574
M  V30 622 1 568 567
M  V30 623 2 569 568
M  V30 624 1 569 571
M  V30 625 1 570 568
M  V30 626 2 571 573
M  V30 627 1 572 569
M  V30 628 1 573 574
M  V30 629 1 573 575
M  V30 630 1 574 576
M  V30 631 2 578 572
M  V30 632 1 579 572
M  V30 633 1 580 590
M  V30 634 2 580 587
M  V30 635 1 581 580
M  V30 636 2 582 581
M  V30 637 1 582 584
M  V30 638 1 583 581
M  V30 639 2 584 586
M  V30 640 1 585 582
M  V30 641 1 586 587
M  V30 642 1 586 588
M  V30 643 1 587 589
M  V30 644 2 591 585
M  V30 645 1 592 585
M  V30 646 9 565 553
M  V30 647 9 558 553
M  V30 648 9 591 553
M  V30 649 9 584 553
M  V30 650 9 578 553
M  V30 651 9 571 553
M  V30 652 1 594 604
M  V30 653 2 594 601
M  V30 654 1 595 594
M  V30 655 2 596 595
M  V30 656 1 596 598
M  V30 657 1 597 595
M  V30 658 2 598 600
M  V30 659 1 599 596
M  V30 660 1 600 601
M  V30 661 1 600 602
M  V30 662 1 601 603
M  V30 663 2 605 599
M  V30 664 1 606 599
M  V30 665 1 607 617
M  V30 666 2 607 614
M  V30 667 1 608 607
M  V30 668 2 609 608
M  V30 669 1 609 611
M  V30 670 1 610 608
M  V30 671 2 611 613
M  V30 672 1 612 609
M  V30 673 1 613 614
M  V30 674 1 613 615
M  V30 675 1 614 616
M  V30 676 2 618 612
M  V30 677 1 619 612
M  V30 678 1 620 630
M  V30 679 2 620 627
M  V30 680 1 621 620
M  V30 681 2 622 621
M  V30 682 1 622 624
M  V30 683 1 623 621
M  V30 684 2 624 626
M  V30 685 1 625 622
M  V30 686 1 626 627
M  V30 687 1 626 628
M  V30 688 1 627 629
M  V30 689 2 631 625
M  V30 690 1 632 625
M  V30 691 9 605 593
M  V30 692 9 598 593
M  V30 693 9 631 593
M  V30 694 9 624 593
M  V30 695 9 618 593
M  V30 696 9 611 593
M  V30 697 1 1 325
M  V30 698 1 9 565
M  V30 699 1 20 365
M  V30 700 1 26 405
M  V30 701 1 61 445
M  V30 702 1 72 485
M  V30 703 1 78 591
M  V30 704 1 53 351
M  V30 705 1 105 458
M  V30 706 1 113 338
M  V30 707 1 124 431
M  V30 708 1 130 605
M  V30 709 1 157 418
M  V30 710 1 165 391
M  V30 711 1 176 525
M  V30 712 1 182 631
M  V30 713 1 217 498
M  V30 714 1 228 471
M  V30 715 1 234 618
M  V30 716 1 209 551
M  V30 717 1 269 578
M  V30 718 1 280 511
M  V30 719 1 286 538
M  V30 720 1 261 378
M  V30 END BOND
M  V30 END CTAB
M  END

$$$$
