
     RDKit          3D

  0  0  0  0  0  0  0  0  0  0999 V3000
M  V30 BEGIN CTAB
M  V30 COUNTS 608 696 0 0 0
M  V30 BEGIN ATOM
M  V30 1 C -3.2106 3.5884 6.6266 0
M  V30 2 C -2.0976 3.5333 5.7851 0
M  V30 3 C -1.4246 2.3413 5.6136 0
M  V30 4 C -1.7906 1.1903 6.3237 0
M  V30 5 C -0.8952 0.0193 6.3155 0
M  V30 6 C 0.4809 0.2652 6.2748 0
M  V30 7 C 1.4469 -0.7321 6.2920 0
M  V30 8 C 2.8574 -0.2644 6.2442 0
M  V30 9 C 3.5470 -0.0200 7.4296 0
M  V30 10 C 4.8250 0.5068 7.4041 0
M  V30 11 C 5.4015 0.8691 6.1882 0
M  V30 12 C 4.7218 0.6336 4.9986 0
M  V30 13 C 3.4656 0.0501 5.0315 0
M  V30 14 C 1.0401 -2.0717 6.3434 0
M  V30 15 C 1.9220 -3.2523 6.3444 0
M  V30 16 C 1.4800 -4.4111 5.6900 0
M  V30 17 C 2.1492 -5.6074 5.8190 0
M  V30 18 C 3.3380 -5.6732 6.5537 0
M  V30 19 C 3.8548 -4.4991 7.1039 0
M  V30 20 C 3.1407 -3.3163 7.0242 0
M  V30 21 C -0.3337 -2.3155 6.4153 0
M  V30 22 C -1.3001 -1.3184 6.4052 0
M  V30 23 C -2.6945 -1.8314 6.4797 0
M  V30 24 C -3.2610 -2.1059 7.7237 0
M  V30 25 C -4.4770 -2.7546 7.8154 0
M  V30 26 C -5.1113 -3.2099 6.6588 0
M  V30 27 C -4.5551 -2.9398 5.4103 0
M  V30 28 C -3.3698 -2.2293 5.3262 0
M  V30 29 C -2.9522 1.2442 7.0973 0
M  V30 30 C -3.6718 2.4177 7.2273 0
M  V30 31 H -1.8001 4.4253 5.2566 0
M  V30 32 H -0.5987 2.3052 4.9228 0
M  V30 33 H 0.8219 1.2877 6.2672 0
M  V30 34 H 3.0878 -0.2389 8.3818 0
M  V30 35 H 5.3665 0.6792 8.3212 0
M  V30 36 H 5.1966 0.8941 4.0681 0
M  V30 37 H 2.9454 -0.1487 4.1085 0
M  V30 38 H 0.5990 -4.3707 5.0713 0
M  V30 39 H 1.7869 -6.4935 5.3236 0
M  V30 40 H 4.7804 -4.5465 7.6562 0
M  V30 41 H 3.5295 -2.4481 7.5274 0
M  V30 42 H -0.6740 -3.3327 6.5212 0
M  V30 43 H -2.7454 -1.8245 8.6296 0
M  V30 44 H -4.9074 -2.9773 8.7802 0
M  V30 45 H -5.0711 -3.2832 4.5281 0
M  V30 46 H -2.9494 -2.0038 4.3589 0
M  V30 47 H -3.2859 0.3775 7.6412 0
M  V30 48 H -4.5477 2.4618 7.8549 0
M  V30 49 C 7.0485 -5.1869 4.5157 0
M  V30 50 C 6.0126 -4.3695 4.0632 0
M  V30 51 C 6.1339 -3.7354 2.8445 0
M  V30 52 C 7.2691 -3.9191 2.0503 0
M  V30 53 C 7.5387 -2.8737 1.0325 0
M  V30 54 C 7.8382 -1.6586 1.6536 0
M  V30 55 C 7.9945 -0.4782 0.9526 0
M  V30 56 C 8.0627 0.7757 1.7321 0
M  V30 57 C 9.2369 1.1990 2.3436 0
M  V30 58 C 9.2300 2.3044 3.1743 0
M  V30 59 C 8.0244 2.9436 3.4541 0
M  V30 60 C 6.8455 2.5355 2.8306 0
M  V30 61 C 6.8758 1.4753 1.9502 0
M  V30 62 C 7.8895 -0.5056 -0.4393 0
M  V30 63 C 7.8390 0.7407 -1.2108 0
M  V30 64 C 6.7599 0.9368 -2.0750 0
M  V30 65 C 6.6031 2.1352 -2.7315 0
M  V30 66 C 7.5112 3.1780 -2.5301 0
M  V30 67 C 8.6297 2.9587 -1.7170 0
M  V30 68 C 8.7855 1.7531 -1.0652 0
M  V30 69 C 7.6827 -1.7250 -1.0644 0
M  V30 70 C 7.4821 -2.9141 -0.3588 0
M  V30 71 C 7.0681 -4.0247 -1.2435 0
M  V30 72 C 7.8843 -4.3544 -2.3280 0
M  V30 73 C 7.3746 -5.0350 -3.4138 0
M  V30 74 C 6.0336 -5.4278 -3.4296 0
M  V30 75 C 5.2557 -5.2253 -2.2920 0
M  V30 76 C 5.7687 -4.5254 -1.2127 0
M  V30 77 C 8.2397 -4.8262 2.4595 0
M  V30 78 C 8.1407 -5.4463 3.6955 0
M  V30 79 H 5.1809 -4.1591 4.7182 0
M  V30 80 H 5.3725 -3.0408 2.5279 0
M  V30 81 H 7.8981 -1.6276 2.7302 0
M  V30 82 H 10.1607 0.6653 2.1765 0
M  V30 83 H 10.1364 2.6265 3.6660 0
M  V30 84 H 5.9358 3.0763 3.0391 0
M  V30 85 H 5.9765 1.1547 1.4490 0
M  V30 86 H 6.0297 0.1533 -2.1989 0
M  V30 87 H 5.7587 2.2911 -3.3830 0
M  V30 88 H 9.3982 3.7111 -1.6311 0
M  V30 89 H 9.6590 1.5931 -0.4532 0
M  V30 90 H 7.6267 -1.7497 -2.1413 0
M  V30 91 H 8.9133 -4.0279 -2.3474 0
M  V30 92 H 8.0025 -5.2556 -4.2642 0
M  V30 93 H 4.2256 -5.5356 -2.2854 0
M  V30 94 H 5.1329 -4.3005 -0.3721 0
M  V30 95 H 9.1172 -4.9969 1.8544 0
M  V30 96 H 8.9209 -6.1095 4.0383 0
M  V30 97 C -3.7494 6.7933 -2.2873 0
M  V30 98 C -2.6088 6.0208 -2.5308 0
M  V30 99 C -1.5759 5.9776 -1.6278 0
M  V30 100 C -1.6326 6.7318 -0.4516 0
M  V30 101 C -0.5025 6.5614 0.4691 0
M  V30 102 C 0.7721 6.6032 -0.0753 0
M  V30 103 C 1.9100 6.1829 0.6125 0
M  V30 104 C 3.0688 6.0810 -0.2940 0
M  V30 105 C 3.4059 7.2021 -1.0611 0
M  V30 106 C 4.0249 7.0555 -2.2811 0
M  V30 107 C 4.3327 5.7738 -2.7543 0
M  V30 108 C 4.2137 4.6858 -1.8862 0
M  V30 109 C 3.5784 4.8376 -0.6682 0
M  V30 110 C 1.7618 5.7366 1.9267 0
M  V30 111 C 2.8003 5.1696 2.8004 0
M  V30 112 C 2.4573 4.0237 3.5291 0
M  V30 113 C 3.2289 3.6044 4.5876 0
M  V30 114 C 4.3940 4.3060 4.9109 0
M  V30 115 C 4.8246 5.3502 4.0902 0
M  V30 116 C 4.0227 5.7885 3.0505 0
M  V30 117 C 0.4983 5.8303 2.5168 0
M  V30 118 C -0.6348 6.2137 1.8180 0
M  V30 119 C -1.9372 6.1893 2.4995 0
M  V30 120 C -2.0833 6.8942 3.6936 0
M  V30 121 C -3.2832 6.8748 4.3717 0
M  V30 122 C -4.3622 6.1594 3.8542 0
M  V30 123 C -4.2290 5.4662 2.6517 0
M  V30 124 C -3.0154 5.4653 1.9934 0
M  V30 125 C -2.7348 7.5577 -0.2328 0
M  V30 126 C -3.7812 7.5921 -1.1345 0
M  V30 127 H -2.5549 5.4481 -3.4441 0
M  V30 128 H -0.7264 5.3399 -1.8123 0
M  V30 129 H 0.8810 6.9281 -1.0980 0
M  V30 130 H 3.1187 8.1884 -0.7284 0
M  V30 131 H 4.2531 7.9212 -2.8842 0
M  V30 132 H 4.5205 3.7076 -2.2131 0
M  V30 133 H 3.3892 3.9751 -0.0503 0
M  V30 134 H 1.5655 3.4800 3.2627 0
M  V30 135 H 2.9634 2.7293 5.1582 0
M  V30 136 H 5.7417 5.8645 4.3303 0
M  V30 137 H 4.3231 6.6483 2.4727 0
M  V30 138 H 0.3901 5.5573 3.5541 0
M  V30 139 H -1.2632 7.4801 4.0783 0
M  V30 140 H -3.4166 7.4584 5.2670 0
M  V30 141 H -5.0646 4.9019 2.2720 0
M  V30 142 H -2.8953 4.8949 1.0880 0
M  V30 143 H -2.7694 8.1915 0.6395 0
M  V30 144 H -4.6039 8.2628 -0.9459 0
M  V30 145 C -7.2148 -5.4266 -2.3552 0
M  V30 146 C -6.3036 -4.4364 -2.7363 0
M  V30 147 C -6.2509 -3.2347 -2.0673 0
M  V30 148 C -7.1272 -2.9776 -1.0118 0
M  V30 149 C -6.9850 -1.7285 -0.2536 0
M  V30 150 C -6.9012 -0.5255 -0.9355 0
M  V30 151 C -6.7378 0.7034 -0.2903 0
M  V30 152 C -6.5506 1.8400 -1.2076 0
M  V30 153 C -7.4227 1.9749 -2.2928 0
M  V30 154 C -7.0671 2.7220 -3.3930 0
M  V30 155 C -5.8261 3.3708 -3.4296 0
M  V30 156 C -5.0489 3.4015 -2.2688 0
M  V30 157 C -5.4032 2.6325 -1.1753 0
M  V30 158 C -6.6510 0.7074 1.1009 0
M  V30 159 C -6.5761 1.8436 2.0496 0
M  V30 160 C -5.3940 2.0870 2.7491 0
M  V30 161 C -5.4126 2.8068 3.9280 0
M  V30 162 C -6.6337 3.2292 4.4542 0
M  V30 163 C -7.8018 3.0918 3.7033 0
M  V30 164 C -7.7630 2.4263 2.4935 0
M  V30 165 C -6.7264 -0.5042 1.7857 0
M  V30 166 C -6.8956 -1.7203 1.1444 0
M  V30 167 C -6.9563 -2.9398 1.9617 0
M  V30 168 C -7.7796 -2.9453 3.0895 0
M  V30 169 C -7.8225 -4.0436 3.9193 0
M  V30 170 C -7.0695 -5.1749 3.6065 0
M  V30 171 C -6.2595 -5.1900 2.4715 0
M  V30 172 C -6.1869 -4.0662 1.6711 0
M  V30 173 C -8.1092 -3.9196 -0.7015 0
M  V30 174 C -8.1586 -5.1285 -1.3622 0
M  V30 175 H -5.6203 -4.6367 -3.5455 0
M  V30 176 H -5.5080 -2.5009 -2.3353 0
M  V30 177 H -6.9693 -0.5367 -2.0117 0
M  V30 178 H -8.3713 1.4595 -2.2898 0
M  V30 179 H -7.7443 2.8089 -4.2292 0
M  V30 180 H -4.1289 3.9623 -2.2577 0
M  V30 181 H -4.7490 2.5811 -0.3207 0
M  V30 182 H -4.4672 1.6630 2.3979 0
M  V30 183 H -4.5163 2.9615 4.5051 0
M  V30 184 H -8.7308 3.4940 4.0790 0
M  V30 185 H -8.6761 2.2910 1.9342 0
M  V30 186 H -6.6412 -0.4921 2.8609 0
M  V30 187 H -8.3996 -2.0905 3.3083 0
M  V30 188 H -8.4659 -4.0608 4.7838 0
M  V30 189 H -5.6542 -6.0581 2.2664 0
M  V30 190 H -5.5190 -4.0524 0.8265 0
M  V30 191 H -8.8472 -3.6987 0.0535 0
M  V30 192 H -8.9534 -5.8212 -1.1350 0
M  V30 193 C -1.8751 3.9506 -5.8059 0
M  V30 194 C -2.2070 3.0069 -4.8293 0
M  V30 195 C -1.6361 1.7534 -4.8446 0
M  V30 196 C -0.7156 1.3966 -5.8338 0
M  V30 197 C -0.2257 0.0050 -5.8569 0
M  V30 198 C -1.1970 -0.9890 -5.9139 0
M  V30 199 C -0.8920 -2.3476 -5.9070 0
M  V30 200 C -2.0291 -3.2774 -6.0035 0
M  V30 201 C -2.9703 -3.0736 -7.0182 0
M  V30 202 C -4.1561 -3.7728 -7.0444 0
M  V30 203 C -4.4547 -4.6914 -6.0266 0
M  V30 204 C -3.4533 -4.9924 -5.0957 0
M  V30 205 C -2.2624 -4.2930 -5.0765 0
M  V30 206 C 0.4476 -2.7277 -5.7632 0
M  V30 207 C 0.9174 -4.1253 -5.6747 0
M  V30 208 C 1.6854 -4.5176 -4.5737 0
M  V30 209 C 2.2776 -5.7611 -4.5426 0
M  V30 210 C 2.1305 -6.6395 -5.6178 0
M  V30 211 C 1.3137 -6.2742 -6.6934 0
M  V30 212 C 0.7119 -5.0304 -6.7144 0
M  V30 213 C 1.4221 -1.7352 -5.7487 0
M  V30 214 C 1.1216 -0.3768 -5.8326 0
M  V30 215 C 2.2610 0.5567 -5.8865 0
M  V30 216 C 3.2655 0.3011 -6.8260 0
M  V30 217 C 4.4267 1.0406 -6.8504 0
M  V30 218 C 4.6359 2.0570 -5.9065 0
M  V30 219 C 3.5859 2.3837 -5.0398 0
M  V30 220 C 2.4198 1.6412 -5.0231 0
M  V30 221 C -0.3851 2.3336 -6.8110 0
M  V30 222 C -0.9616 3.5893 -6.8054 0
M  V30 223 H -2.9094 3.2699 -4.0565 0
M  V30 224 H -1.8943 1.0395 -4.0788 0
M  V30 225 H -2.2330 -0.6946 -5.9735 0
M  V30 226 H -2.7662 -2.3595 -7.8016 0
M  V30 227 H -4.8373 -3.6171 -7.8661 0
M  V30 228 H -3.6405 -5.7604 -4.3629 0
M  V30 229 H -1.5297 -4.5039 -4.3147 0
M  V30 230 H 1.8153 -3.8344 -3.7496 0
M  V30 231 H 2.8568 -6.1008 -3.6996 0
M  V30 232 H 1.2175 -6.9270 -7.5475 0
M  V30 233 H 0.1185 -4.7463 -7.5696 0
M  V30 234 H 2.4566 -2.0321 -5.6756 0
M  V30 235 H 3.1236 -0.4779 -7.5593 0
M  V30 236 H 5.1538 0.8499 -7.6238 0
M  V30 237 H 3.7130 3.2148 -4.3627 0
M  V30 238 H 1.6422 1.8803 -4.3161 0
M  V30 239 H 0.2973 2.0707 -7.6042 0
M  V30 240 H -0.7471 4.2662 -7.6176 0
M  V30 241 C -3.8581 -6.5625 4.7174 0
M  V30 242 C -2.8914 -5.6846 4.2245 0
M  V30 243 C -2.1402 -6.0434 3.1261 0
M  V30 244 C -2.3183 -7.2864 2.5103 0
M  V30 245 C -1.2397 -7.7779 1.6307 0
M  V30 246 C 0.0124 -7.7998 2.2471 0
M  V30 247 C 1.1591 -8.2232 1.5986 0
M  V30 248 C 2.4121 -8.2686 2.3695 0
M  V30 249 C 3.0942 -9.4694 2.5537 0
M  V30 250 C 4.2559 -9.5049 3.2986 0
M  V30 251 C 4.7503 -8.3292 3.8684 0
M  V30 252 C 4.0661 -7.1267 3.6882 0
M  V30 253 C 2.9052 -7.0977 2.9483 0
M  V30 254 C 1.0865 -8.5889 0.2459 0
M  V30 255 C 2.2788 -8.7607 -0.5914 0
M  V30 256 C 2.2590 -9.5808 -1.7243 0
M  V30 257 C 3.2944 -9.5533 -2.6334 0
M  V30 258 C 4.4181 -8.7635 -2.3875 0
M  V30 259 C 4.5014 -8.0344 -1.2020 0
M  V30 260 C 3.4215 -7.9945 -0.3478 0
M  V30 261 C -0.1695 -8.6285 -0.3432 0
M  V30 262 C -1.3368 -8.2532 0.3232 0
M  V30 263 C -2.5245 -8.2752 -0.5471 0
M  V30 264 C -2.7978 -9.4453 -1.2636 0
M  V30 265 C -3.5722 -9.4097 -2.4006 0
M  V30 266 C -4.0929 -8.1888 -2.8504 0
M  V30 267 C -4.0006 -7.0708 -2.0158 0
M  V30 268 C -3.2142 -7.1111 -0.8803 0
M  V30 269 C -3.3637 -8.1022 2.9322 0
M  V30 270 C -4.1319 -7.7421 4.0266 0
M  V30 271 H -2.7440 -4.7364 4.7156 0
M  V30 272 H -1.3791 -5.3764 2.7541 0
M  V30 273 H 0.0839 -7.5069 3.2820 0
M  V30 274 H 2.7076 -10.3813 2.1264 0
M  V30 275 H 4.7516 -10.4459 3.4835 0
M  V30 276 H 4.4892 -6.2236 4.0962 0
M  V30 277 H 2.3903 -6.1640 2.7846 0
M  V30 278 H 1.4256 -10.2409 -1.9053 0
M  V30 279 H 3.2634 -10.1652 -3.5207 0
M  V30 280 H 5.3753 -7.4341 -1.0071 0
M  V30 281 H 3.4615 -7.3291 0.4961 0
M  V30 282 H -0.2474 -8.8968 -1.3842 0
M  V30 283 H -2.3613 -10.3820 -0.9507 0
M  V30 284 H -3.7694 -10.3176 -2.9505 0
M  V30 285 H -4.4714 -6.1480 -2.3083 0
M  V30 286 H -3.0632 -6.2171 -0.2978 0
M  V30 287 H -3.5349 -9.0551 2.4566 0
M  V30 288 H -4.8705 -8.4244 4.4128 0
M  V30 289 Zn 7.1189 3.5955 6.3071 0 CHG=2
M  V30 290 C 11.3297 1.2200 7.1378 0
M  V30 291 C 10.1156 0.5834 6.9278 0
M  V30 292 C 8.9764 1.3580 6.7326 0
M  V30 293 H 10.0567 -0.4930 6.9125 0
M  V30 294 N 9.0136 2.6996 6.7304 0
M  V30 295 C 7.6645 0.7716 6.5575 0
M  V30 296 C 10.1724 3.3008 6.9442 0
M  V30 297 C 11.3568 2.6063 7.1550 0
M  V30 298 H 10.1675 4.3796 6.9593 0
M  V30 299 H 12.2742 3.1444 7.3321 0
M  V30 300 H 12.2357 0.6552 7.2938 0
M  V30 301 N 6.6743 1.4887 6.1963 0
M  V30 302 H 7.5538 -0.2905 6.7626 0
M  V30 303 C 5.2438 3.1865 10.7601 0
M  V30 304 C 4.4963 3.4154 9.6144 0
M  V30 305 C 5.1584 3.5346 8.3948 0
M  V30 306 H 3.4228 3.5027 9.6663 0
M  V30 307 N 6.4945 3.4173 8.2941 0
M  V30 308 C 4.4610 3.8183 7.1607 0
M  V30 309 C 7.2031 3.2028 9.3908 0
M  V30 310 C 6.6228 3.0830 10.6474 0
M  V30 311 H 8.2719 3.1235 9.2676 0
M  V30 312 H 7.2420 2.9131 11.5135 0
M  V30 313 H 4.7675 3.0927 11.7236 0
M  V30 314 N 5.1144 3.9997 6.0717 0
M  V30 315 H 3.3789 3.9144 7.2034 0
M  V30 316 C 9.1124 8.0302 6.5165 0
M  V30 317 C 9.2845 7.1471 5.4599 0
M  V30 318 C 8.6104 5.9292 5.4896 0
M  V30 319 H 9.9293 7.3993 4.6327 0
M  V30 320 N 7.8033 5.5844 6.5073 0
M  V30 321 C 8.7194 4.9522 4.4232 0
M  V30 322 C 7.6348 6.4340 7.5058 0
M  V30 323 C 8.2674 7.6703 7.5561 0
M  V30 324 H 6.9744 6.1223 8.3004 0
M  V30 325 H 8.1083 8.3322 8.3920 0
M  V30 326 H 9.6265 8.9789 6.5284 0
M  V30 327 N 7.9390 3.9425 4.4271 0
M  V30 328 H 9.4490 5.1291 3.6374 0
M  V30 329 Zn 6.0496 -7.4236 6.5646 0 CHG=2
M  V30 330 C 3.8173 -11.5108 7.9338 0
M  V30 331 C 3.1612 -10.3330 7.6120 0
M  V30 332 C 3.9179 -9.2010 7.3154 0
M  V30 333 H 2.0836 -10.2951 7.5939 0
M  V30 334 N 5.2614 -9.2203 7.3190 0
M  V30 335 C 3.3013 -7.9256 7.0312 0
M  V30 336 C 5.8811 -10.3420 7.6445 0
M  V30 337 C 5.2043 -11.5132 7.9607 0
M  V30 338 H 6.9596 -10.3175 7.6607 0
M  V30 339 H 5.7557 -12.4021 8.2221 0
M  V30 340 H 3.2662 -12.4085 8.1676 0
M  V30 341 N 4.0066 -6.8877 6.7630 0
M  V30 342 H 2.2177 -7.8779 7.1096 0
M  V30 343 C 8.1967 -5.4707 10.4219 0
M  V30 344 C 8.4085 -5.0487 9.1158 0
M  V30 345 C 7.6527 -5.6221 8.0973 0
M  V30 346 H 9.1488 -4.2960 8.8957 0
M  V30 347 N 6.7237 -6.5622 8.3428 0
M  V30 348 C 7.7821 -5.2215 6.7079 0
M  V30 349 C 6.5170 -6.9539 9.5883 0
M  V30 350 C 7.2310 -6.4362 10.6639 0
M  V30 351 H 5.7575 -7.7058 9.7391 0
M  V30 352 H 7.0369 -6.7873 11.6645 0
M  V30 353 H 8.7723 -5.0557 11.2347 0
M  V30 354 N 6.9663 -5.6745 5.8380 0
M  V30 355 H 8.5538 -4.4980 6.4550 0
M  V30 356 C 10.3009 -9.8146 5.6672 0
M  V30 357 C 9.2174 -9.7849 4.8041 0
M  V30 358 C 8.0805 -9.0679 5.1729 0
M  V30 359 H 9.2506 -10.3124 3.8639 0
M  V30 360 N 8.0021 -8.3918 6.3299 0
M  V30 361 C 6.9086 -9.0280 4.3314 0
M  V30 362 C 9.0382 -8.4349 7.1523 0
M  V30 363 C 10.2066 -9.1294 6.8698 0
M  V30 364 H 8.9433 -7.9050 8.0867 0
M  V30 365 H 11.0189 -9.1372 7.5785 0
M  V30 366 H 11.1951 -10.3637 5.4160 0
M  V30 367 N 5.9033 -8.3056 4.6522 0
M  V30 368 H 6.9263 -9.6261 3.4245 0
M  V30 369 Zn -6.5131 -6.0995 6.4721 0 CHG=2
M  V30 370 C -10.6889 -4.5881 8.4491 0
M  V30 371 C -9.5744 -3.7775 8.2922 0
M  V30 372 C -8.4461 -4.3016 7.6663 0
M  V30 373 H -9.5827 -2.7600 8.6494 0
M  V30 374 N -8.4033 -5.5649 7.2127 0
M  V30 375 C -7.2473 -3.5178 7.4617 0
M  V30 376 C -9.4720 -6.3302 7.3566 0
M  V30 377 C -10.6389 -5.8882 7.9680 0
M  V30 378 H -9.4047 -7.3380 6.9766 0
M  V30 379 H -11.4839 -6.5500 8.0690 0
M  V30 380 H -11.5786 -4.2183 8.9349 0
M  V30 381 N -6.2844 -3.9764 6.7570 0
M  V30 382 H -7.2085 -2.5307 7.9147 0
M  V30 383 C -4.0916 -5.7618 10.6646 0
M  V30 384 C -3.4857 -5.7942 9.4173 0
M  V30 385 C -4.2822 -5.9788 8.2903 0
M  V30 386 H -2.4174 -5.6809 9.3227 0
M  V30 387 N -5.6178 -6.1062 8.3723 0
M  V30 388 C -3.7255 -6.1067 6.9616 0
M  V30 389 C -6.1884 -6.0907 9.5660 0
M  V30 390 C -5.4670 -5.9238 10.7416 0
M  V30 391 H -7.2601 -6.2167 9.5934 0
M  V30 392 H -5.9787 -5.9230 11.6906 0
M  V30 393 H -3.5100 -5.6205 11.5623 0
M  V30 394 N -4.4866 -6.3279 5.9560 0
M  V30 395 H -2.6429 -6.0791 6.8617 0
M  V30 396 C -7.7123 -10.7633 5.8040 0
M  V30 397 C -7.7261 -9.8069 4.7983 0
M  V30 398 C -7.3350 -8.5067 5.1060 0
M  V30 399 H -8.0415 -10.0654 3.8000 0
M  V30 400 N -6.9342 -8.1563 6.3406 0
M  V30 401 C -7.3333 -7.4385 4.1228 0
M  V30 402 C -6.9143 -9.0728 7.2929 0
M  V30 403 C -7.2974 -10.3911 7.0741 0
M  V30 404 H -6.5789 -8.7509 8.2669 0
M  V30 405 H -7.2702 -11.1063 7.8802 0
M  V30 406 H -8.0162 -11.7791 5.6034 0
M  V30 407 N -7.1036 -6.2429 4.5060 0
M  V30 408 H -7.5505 -7.6891 3.0878 0
M  V30 409 Zn -5.8138 5.4592 6.5605 0 CHG=2
M  V30 410 C -3.6656 9.2081 8.7332 0
M  V30 411 C -3.0138 8.0311 8.3932 0
M  V30 412 C -3.7388 7.0224 7.7634 0
M  V30 413 H -1.9666 7.9013 8.6163 0
M  V30 414 N -5.0443 7.1587 7.4729 0
M  V30 415 C -3.1384 5.7550 7.3944 0
M  V30 416 C -5.6604 8.2827 7.7952 0
M  V30 417 C -5.0127 9.3374 8.4287 0
M  V30 418 H -6.7063 8.3548 7.5390 0
M  V30 419 H -5.5544 10.2367 8.6738 0
M  V30 420 H -3.1378 10.0109 9.2241 0
M  V30 421 N -3.8517 4.8071 6.9146 0
M  V30 422 H -2.0720 5.6352 7.5753 0
M  V30 423 C -8.2549 3.4739 10.2403 0
M  V30 424 C -8.3308 3.0351 8.9263 0
M  V30 425 C -7.5064 3.6273 7.9727 0
M  V30 426 H -9.0197 2.2540 8.6464 0
M  V30 427 N -6.6390 4.6034 8.2881 0
M  V30 428 C -7.5028 3.2088 6.5879 0
M  V30 429 C -6.5589 5.0071 9.5451 0
M  V30 430 C -7.3471 4.4736 10.5580 0
M  V30 431 H -5.8431 5.7859 9.7599 0
M  V30 432 H -7.2542 4.8386 11.5681 0
M  V30 433 H -8.8870 3.0464 11.0031 0
M  V30 434 N -6.6518 3.7062 5.7721 0
M  V30 435 H -8.2073 2.4385 6.2857 0
M  V30 436 C -10.1981 7.0440 5.0241 0
M  V30 437 C -9.0913 6.8893 4.2032 0
M  V30 438 C -7.8780 6.5165 4.7759 0
M  V30 439 H -9.1673 7.0609 3.1413 0
M  V30 440 N -7.7500 6.2809 6.0916 0
M  V30 441 C -6.6598 6.4208 4.0021 0
M  V30 442 C -8.8048 6.4507 6.8713 0
M  V30 443 C -10.0494 6.8321 6.3868 0
M  V30 444 H -8.6606 6.2831 7.9277 0
M  V30 445 H -10.8778 6.9618 7.0643 0
M  V30 446 H -11.1546 7.3330 4.6168 0
M  V30 447 N -5.5543 6.1615 4.5873 0
M  V30 448 H -6.7152 6.6407 2.9390 0
M  V30 449 Zn 6.3463 4.7091 -5.0342 0 CHG=2
M  V30 450 C 7.8667 9.1089 -3.5150 0
M  V30 451 C 7.9566 7.9469 -2.7659 0
M  V30 452 C 7.5526 6.7424 -3.3393 0
M  V30 453 H 8.3391 7.9715 -1.7580 0
M  V30 454 N 7.0576 6.6778 -4.5857 0
M  V30 455 C 7.6823 5.4872 -2.6418 0
M  V30 456 C 6.9862 7.7895 -5.2996 0
M  V30 457 C 7.3801 9.0277 -4.8120 0
M  V30 458 H 6.6078 7.6926 -6.3049 0
M  V30 459 H 7.3114 9.9042 -5.4359 0
M  V30 460 H 8.1759 10.0577 -3.1046 0
M  V30 461 N 7.2680 4.3920 -3.1669 0
M  V30 462 H 8.1553 5.5154 -1.6650 0
M  V30 463 C 10.5198 3.0178 -6.7899 0
M  V30 464 C 9.3546 2.2721 -6.7116 0
M  V30 465 C 8.1865 2.8916 -6.2674 0
M  V30 466 H 9.3518 1.2322 -6.9971 0
M  V30 467 N 8.1638 4.1816 -5.8963 0
M  V30 468 C 6.9276 2.1867 -6.2287 0
M  V30 469 C 9.2773 4.8898 -5.9788 0
M  V30 470 C 10.4793 4.3557 -6.4241 0
M  V30 471 H 9.2167 5.9260 -5.6846 0
M  V30 472 H 11.3598 4.9751 -6.4836 0
M  V30 473 H 11.4407 2.5733 -7.1346 0
M  V30 474 N 5.8491 2.7447 -5.8060 0
M  V30 475 H 6.9465 1.1638 -6.5935 0
M  V30 476 C 3.8077 6.6077 -8.6822 0
M  V30 477 C 3.4561 6.7371 -7.3475 0
M  V30 478 C 4.2552 6.1310 -6.3798 0
M  V30 479 H 2.5876 7.3058 -7.0576 0
M  V30 480 N 5.3470 5.4205 -6.7052 0
M  V30 481 C 3.9702 6.2391 -4.9694 0
M  V30 482 C 5.6777 5.2963 -7.9799 0
M  V30 483 C 4.9405 5.8742 -9.0056 0
M  V30 484 H 6.5659 4.7223 -8.1945 0
M  V30 485 H 5.2526 5.7567 -10.0308 0
M  V30 486 H 3.2192 7.0713 -9.4588 0
M  V30 487 N 4.6477 5.5718 -4.1043 0
M  V30 488 H 3.1579 6.8950 -4.6696 0
M  V30 489 Zn 5.0109 -7.9175 -5.2870 0 CHG=2
M  V30 490 C 4.7391 -5.1668 -9.2816 0
M  V30 491 C 5.0863 -4.6781 -8.0312 0
M  V30 492 C 5.2085 -5.5730 -6.9717 0
M  V30 493 H 5.2592 -3.6249 -7.8783 0
M  V30 494 N 4.9848 -6.8887 -7.1193 0
M  V30 495 C 5.6097 -5.1513 -5.6487 0
M  V30 496 C 4.6687 -7.3524 -8.3181 0
M  V30 497 C 4.5373 -6.5310 -9.4303 0
M  V30 498 H 4.5221 -8.4183 -8.3996 0
M  V30 499 H 4.2876 -6.9578 -10.3883 0
M  V30 500 H 4.6361 -4.5063 -10.1283 0
M  V30 501 N 5.4835 -5.9230 -4.6343 0
M  V30 502 H 6.0296 -4.1532 -5.5471 0
M  V30 503 C 9.8551 -8.4547 -4.9826 0
M  V30 504 C 8.9832 -8.6296 -3.9187 0
M  V30 505 C 7.6173 -8.4656 -4.1366 0
M  V30 506 H 9.3540 -8.8969 -2.9420 0
M  V30 507 N 7.1235 -8.1256 -5.3391 0
M  V30 508 C 6.6383 -8.6711 -3.0915 0
M  V30 509 C 7.9601 -7.9607 -6.3504 0
M  V30 510 C 9.3343 -8.1168 -6.2236 0
M  V30 511 H 7.5210 -7.6942 -7.2993 0
M  V30 512 H 9.9785 -7.9776 -7.0767 0
M  V30 513 H 10.9186 -8.5812 -4.8508 0
M  V30 514 N 5.3921 -8.6288 -3.3753 0
M  V30 515 H 7.0010 -8.8910 -2.0911 0
M  V30 516 C 3.7152 -12.3134 -6.9223 0
M  V30 517 C 2.8247 -11.2612 -6.7723 0
M  V30 518 C 3.3038 -10.0352 -6.3144 0
M  V30 519 H 1.7799 -11.3915 -7.0060 0
M  V30 520 N 4.5997 -9.8451 -6.0138 0
M  V30 521 C 2.4449 -8.8805 -6.1635 0
M  V30 522 C 5.4445 -10.8515 -6.1600 0
M  V30 523 C 5.0513 -12.1050 -6.6120 0
M  V30 524 H 6.4773 -10.6593 -5.9134 0
M  V30 525 H 5.7759 -12.8957 -6.7218 0
M  V30 526 H 3.3792 -13.2756 -7.2769 0
M  V30 527 N 2.8877 -7.8109 -5.6149 0
M  V30 528 H 1.4306 -8.9623 -6.5444 0
M  V30 529 Zn -6.3683 -7.1342 -4.9117 0 CHG=2
M  V30 530 C -8.0376 -11.3527 -3.0880 0
M  V30 531 C -7.9876 -10.1606 -2.3838 0
M  V30 532 C -7.5674 -9.0055 -3.0423 0
M  V30 533 H -8.2777 -10.1252 -1.3460 0
M  V30 534 N -7.1881 -9.0190 -4.3303 0
M  V30 535 C -7.5538 -7.7215 -2.3849 0
M  V30 536 C -7.2513 -10.1576 -5.0000 0
M  V30 537 C -7.6717 -11.3500 -4.4264 0
M  V30 538 H -6.9632 -10.1243 -6.0389 0
M  V30 539 H -7.7135 -12.2510 -5.0169 0
M  V30 540 H -8.3626 -12.2651 -2.6124 0
M  V30 541 N -7.1303 -6.6670 -2.9834 0
M  V30 542 H -7.9297 -7.6947 -1.3664 0
M  V30 543 C -10.3983 -5.2811 -6.8544 0
M  V30 544 C -9.1604 -4.6617 -6.9138 0
M  V30 545 C -8.0605 -5.2943 -6.3333 0
M  V30 546 H -9.0492 -3.7100 -7.4090 0
M  V30 547 N -8.1716 -6.4760 -5.7072 0
M  V30 548 C -6.7411 -4.7134 -6.4021 0
M  V30 549 C -9.3567 -7.0602 -5.6484 0
M  V30 550 C -10.4990 -6.5065 -6.2107 0
M  V30 551 H -9.4046 -8.0100 -5.1390 0
M  V30 552 H -11.4423 -7.0244 -6.1469 0
M  V30 553 H -11.2680 -4.8244 -7.3009 0
M  V30 554 N -5.7128 -5.2850 -5.8834 0
M  V30 555 H -6.6746 -3.7606 -6.9191 0
M  V30 556 C -4.3561 -9.3161 -8.7501 0
M  V30 557 C -3.8334 -9.3633 -7.4674 0
M  V30 558 C -4.5035 -8.6967 -6.4422 0
M  V30 559 H -2.9290 -9.9137 -7.2632 0
M  V30 560 N -5.6290 -8.0009 -6.6657 0
M  V30 561 C -4.0319 -8.7309 -5.0797 0
M  V30 562 C -6.1220 -7.9558 -7.8921 0
M  V30 563 C -5.5251 -8.6007 -8.9674 0
M  V30 564 H -7.0315 -7.3913 -8.0277 0
M  V30 565 H -5.9695 -8.5456 -9.9481 0
M  V30 566 H -3.8701 -9.8282 -9.5661 0
M  V30 567 N -4.6062 -8.0581 -4.1468 0
M  V30 568 H -3.1574 -9.3442 -4.8801 0
M  V30 569 Zn -4.5907 5.7937 -5.1786 0 CHG=2
M  V30 570 C -9.1923 7.3928 -4.8521 0
M  V30 571 C -8.2610 7.5037 -3.8320 0
M  V30 572 C -6.9695 7.0205 -4.0413 0
M  V30 573 H -8.5290 7.9641 -2.8941 0
M  V30 574 N -6.6071 6.4405 -5.1970 0
M  V30 575 C -5.9474 7.1378 -3.0268 0
M  V30 576 C -7.5013 6.3354 -6.1656 0
M  V30 577 C -8.8051 6.7972 -6.0441 0
M  V30 578 H -7.1705 5.8682 -7.0801 0
M  V30 579 H -9.4979 6.6966 -6.8638 0
M  V30 580 H -10.1973 7.7645 -4.7252 0
M  V30 581 N -4.7661 6.6810 -3.2288 0
M  V30 582 H -6.2423 7.6284 -2.1045 0
M  V30 583 C -2.5012 9.8616 -6.8179 0
M  V30 584 C -1.8350 8.6482 -6.7616 0
M  V30 585 C -2.5079 7.5288 -6.2721 0
M  V30 586 H -0.8147 8.5708 -7.1011 0
M  V30 587 N -3.7789 7.5964 -5.8445 0
M  V30 588 C -1.8777 6.2306 -6.2308 0
M  V30 589 C -4.4089 8.7586 -5.8972 0
M  V30 590 C -3.8159 9.9183 -6.3779 0
M  V30 591 H -5.4302 8.7763 -5.5502 0
M  V30 592 H -4.3735 10.8404 -6.4096 0
M  V30 593 H -2.0140 10.7458 -7.1988 0
M  V30 594 N -2.4872 5.2068 -5.7543 0
M  V30 595 H -0.8673 6.1689 -6.6239 0
M  V30 596 C -4.8469 3.3499 -9.3570 0
M  V30 597 C -5.1878 2.8218 -8.1218 0
M  V30 598 C -5.1613 3.6543 -7.0048 0
M  V30 599 H -5.4701 1.7860 -8.0238 0
M  V30 600 N -4.7980 4.9443 -7.0878 0
M  V30 601 C -5.5396 3.1871 -5.6932 0
M  V30 602 C -4.4917 5.4483 -8.2723 0
M  V30 603 C -4.5030 4.6919 -9.4361 0
M  V30 604 H -4.2321 6.4951 -8.2970 0
M  V30 605 H -4.2527 5.1490 -10.3798 0
M  V30 606 H -4.8569 2.7372 -10.2449 0
M  V30 607 N -5.3427 3.8952 -4.6386 0
M  V30 608 H -5.9923 2.2004 -5.6337 0
M  V30 END ATOM
M  V30 BEGIN BOND
M  V30 1 2 1 2
M  V30 2 1 2 3
M  V30 3 2 3 4
M  V30 4 1 4 5
M  V30 5 2 5 6
M  V30 6 1 6 7
M  V30 7 1 7 8
M  V30 8 2 8 9
M  V30 9 1 9 10
M  V30 10 2 10 11
M  V30 11 1 11 12
M  V30 12 2 12 13
M  V30 13 2 7 14
M  V30 14 1 14 15
M  V30 15 2 15 16
M  V30 16 1 16 17
M  V30 17 2 17 18
M  V30 18 1 18 19
M  V30 19 2 19 20
M  V30 20 1 14 21
M  V30 21 2 21 22
M  V30 22 1 22 23
M  V30 23 2 23 24
M  V30 24 1 24 25
M  V30 25 2 25 26
M  V30 26 1 26 27
M  V30 27 2 27 28
M  V30 28 1 4 29
M  V30 29 2 29 30
M  V30 30 1 30 1
M  V30 31 1 22 5
M  V30 32 1 28 23
M  V30 33 1 13 8
M  V30 34 1 20 15
M  V30 35 1 2 31
M  V30 36 1 3 32
M  V30 37 1 6 33
M  V30 38 1 9 34
M  V30 39 1 10 35
M  V30 40 1 12 36
M  V30 41 1 13 37
M  V30 42 1 16 38
M  V30 43 1 17 39
M  V30 44 1 19 40
M  V30 45 1 20 41
M  V30 46 1 21 42
M  V30 47 1 24 43
M  V30 48 1 25 44
M  V30 49 1 27 45
M  V30 50 1 28 46
M  V30 51 1 29 47
M  V30 52 1 30 48
M  V30 53 2 49 50
M  V30 54 1 50 51
M  V30 55 2 51 52
M  V30 56 1 52 53
M  V30 57 2 53 54
M  V30 58 1 54 55
M  V30 59 1 55 56
M  V30 60 2 56 57
M  V30 61 1 57 58
M  V30 62 2 58 59
M  V30 63 1 59 60
M  V30 64 2 60 61
M  V30 65 2 55 62
M  V30 66 1 62 63
M  V30 67 2 63 64
M  V30 68 1 64 65
M  V30 69 2 65 66
M  V30 70 1 66 67
M  V30 71 2 67 68
M  V30 72 1 62 69
M  V30 73 2 69 70
M  V30 74 1 70 71
M  V30 75 2 71 72
M  V30 76 1 72 73
M  V30 77 2 73 74
M  V30 78 1 74 75
M  V30 79 2 75 76
M  V30 80 1 52 77
M  V30 81 2 77 78
M  V30 82 1 78 49
M  V30 83 1 70 53
M  V30 84 1 76 71
M  V30 85 1 61 56
M  V30 86 1 68 63
M  V30 87 1 50 79
M  V30 88 1 51 80
M  V30 89 1 54 81
M  V30 90 1 57 82
M  V30 91 1 58 83
M  V30 92 1 60 84
M  V30 93 1 61 85
M  V30 94 1 64 86
M  V30 95 1 65 87
M  V30 96 1 67 88
M  V30 97 1 68 89
M  V30 98 1 69 90
M  V30 99 1 72 91
M  V30 100 1 73 92
M  V30 101 1 75 93
M  V30 102 1 76 94
M  V30 103 1 77 95
M  V30 104 1 78 96
M  V30 105 2 97 98
M  V30 106 1 98 99
M  V30 107 2 99 100
M  V30 108 1 100 101
M  V30 109 2 101 102
M  V30 110 1 102 103
M  V30 111 1 103 104
M  V30 112 2 104 105
M  V30 113 1 105 106
M  V30 114 2 106 107
M  V30 115 1 107 108
M  V30 116 2 108 109
M  V30 117 2 103 110
M  V30 118 1 110 111
M  V30 119 2 111 112
M  V30 120 1 112 113
M  V30 121 2 113 114
M  V30 122 1 114 115
M  V30 123 2 115 116
M  V30 124 1 110 117
M  V30 125 2 117 118
M  V30 126 1 118 119
M  V30 127 2 119 120
M  V30 128 1 120 121
M  V30 129 2 121 122
M  V30 130 1 122 123
M  V30 131 2 123 124
M  V30 132 1 100 125
M  V30 133 2 125 126
M  V30 134 1 126 97
M  V30 135 1 118 101
M  V30 136 1 124 119
M  V30 137 1 109 104
M  V30 138 1 116 111
M  V30 139 1 98 127
M  V30 140 1 99 128
M  V30 141 1 102 129
M  V30 142 1 105 130
M  V30 143 1 106 131
M  V30 144 1 108 132
M  V30 145 1 109 133
M  V30 146 1 112 134
M  V30 147 1 113 135
M  V30 148 1 115 136
M  V30 149 1 116 137
M  V30 150 1 117 138
M  V30 151 1 120 139
M  V30 152 1 121 140
M  V30 153 1 123 141
M  V30 154 1 124 142
M  V30 155 1 125 143
M  V30 156 1 126 144
M  V30 157 2 145 146
M  V30 158 1 146 147
M  V30 159 2 147 148
M  V30 160 1 148 149
M  V30 161 2 149 150
M  V30 162 1 150 151
M  V30 163 1 151 152
M  V30 164 2 152 153
M  V30 165 1 153 154
M  V30 166 2 154 155
M  V30 167 1 155 156
M  V30 168 2 156 157
M  V30 169 2 151 158
M  V30 170 1 158 159
M  V30 171 2 159 160
M  V30 172 1 160 161
M  V30 173 2 161 162
M  V30 174 1 162 163
M  V30 175 2 163 164
M  V30 176 1 158 165
M  V30 177 2 165 166
M  V30 178 1 166 167
M  V30 179 2 167 168
M  V30 180 1 168 169
M  V30 181 2 169 170
M  V30 182 1 170 171
M  V30 183 2 171 172
M  V30 184 1 148 173
M  V30 185 2 173 174
M  V30 186 1 174 145
M  V30 187 1 166 149
M  V30 188 1 172 167
M  V30 189 1 157 152
M  V30 190 1 164 159
M  V30 191 1 146 175
M  V30 192 1 147 176
M  V30 193 1 150 177
M  V30 194 1 153 178
M  V30 195 1 154 179
M  V30 196 1 156 180
M  V30 197 1 157 181
M  V30 198 1 160 182
M  V30 199 1 161 183
M  V30 200 1 163 184
M  V30 201 1 164 185
M  V30 202 1 165 186
M  V30 203 1 168 187
M  V30 204 1 169 188
M  V30 205 1 171 189
M  V30 206 1 172 190
M  V30 207 1 173 191
M  V30 208 1 174 192
M  V30 209 2 193 194
M  V30 210 1 194 195
M  V30 211 2 195 196
M  V30 212 1 196 197
M  V30 213 2 197 198
M  V30 214 1 198 199
M  V30 215 1 199 200
M  V30 216 2 200 201
M  V30 217 1 201 202
M  V30 218 2 202 203
M  V30 219 1 203 204
M  V30 220 2 204 205
M  V30 221 2 199 206
M  V30 222 1 206 207
M  V30 223 2 207 208
M  V30 224 1 208 209
M  V30 225 2 209 210
M  V30 226 1 210 211
M  V30 227 2 211 212
M  V30 228 1 206 213
M  V30 229 2 213 214
M  V30 230 1 214 215
M  V30 231 2 215 216
M  V30 232 1 216 217
M  V30 233 2 217 218
M  V30 234 1 218 219
M  V30 235 2 219 220
M  V30 236 1 196 221
M  V30 237 2 221 222
M  V30 238 1 222 193
M  V30 239 1 214 197
M  V30 240 1 220 215
M  V30 241 1 205 200
M  V30 242 1 212 207
M  V30 243 1 194 223
M  V30 244 1 195 224
M  V30 245 1 198 225
M  V30 246 1 201 226
M  V30 247 1 202 227
M  V30 248 1 204 228
M  V30 249 1 205 229
M  V30 250 1 208 230
M  V30 251 1 209 231
M  V30 252 1 211 232
M  V30 253 1 212 233
M  V30 254 1 213 234
M  V30 255 1 216 235
M  V30 256 1 217 236
M  V30 257 1 219 237
M  V30 258 1 220 238
M  V30 259 1 221 239
M  V30 260 1 222 240
M  V30 261 2 241 242
M  V30 262 1 242 243
M  V30 263 2 243 244
M  V30 264 1 244 245
M  V30 265 2 245 246
M  V30 266 1 246 247
M  V30 267 1 247 248
M  V30 268 2 248 249
M  V30 269 1 249 250
M  V30 270 2 250 251
M  V30 271 1 251 252
M  V30 272 2 252 253
M  V30 273 2 247 254
M  V30 274 1 254 255
M  V30 275 2 255 256
M  V30 276 1 256 257
M  V30 277 2 257 258
M  V30 278 1 258 259
M  V30 279 2 259 260
M  V30 280 1 254 261
M  V30 281 2 261 262
M  V30 282 1 262 263
M  V30 283 2 263 264
M  V30 284 1 264 265
M  V30 285 2 265 266
M  V30 286 1 266 267
M  V30 287 2 267 268
M  V30 288 1 244 269
M  V30 289 2 269 270
M  V30 290 1 270 241
M  V30 291 1 262 245
M  V30 292 1 268 263
M  V30 293 1 253 248
M  V30 294 1 260 255
M  V30 295 1 242 271
M  V30 296 1 243 272
M  V30 297 1 246 273
M  V30 298 1 249 274
M  V30 299 1 250 275
M  V30 300 1 252 276
M  V30 301 1 253 277
M  V30 302 1 256 278
M  V30 303 1 257 279
M  V30 304 1 259 280
M  V30 305 1 260 281
M  V30 306 1 261 282
M  V30 307 1 264 283
M  V30 308 1 265 284
M  V30 309 1 267 285
M  V30 310 1 268 286
M  V30 311 1 269 287
M  V30 312 1 270 288
M  V30 313 1 290 300
M  V30 314 2 290 297
M  V30 315 1 291 290
M  V30 316 2 292 291
M  V30 317 1 292 294
M  V30 318 1 293 291
M  V30 319 2 294 296
M  V30 320 1 295 292
M  V30 321 1 296 297
M  V30 322 1 296 298
M  V30 323 1 297 299
M  V30 324 2 301 295
M  V30 325 1 302 295
M  V30 326 1 303 313
M  V30 327 2 303 310
M  V30 328 1 304 303
M  V30 329 2 305 304
M  V30 330 1 305 307
M  V30 331 1 306 304
M  V30 332 2 307 309
M  V30 333 1 308 305
M  V30 334 1 309 310
M  V30 335 1 309 311
M  V30 336 1 310 312
M  V30 337 2 314 308
M  V30 338 1 315 308
M  V30 339 1 316 326
M  V30 340 2 316 323
M  V30 341 1 317 316
M  V30 342 2 318 317
M  V30 343 1 318 320
M  V30 344 1 319 317
M  V30 345 2 320 322
M  V30 346 1 321 318
M  V30 347 1 322 323
M  V30 348 1 322 324
M  V30 349 1 323 325
M  V30 350 2 327 321
M  V30 351 1 328 321
M  V30 352 9 301 289
M  V30 353 9 294 289
M  V30 354 9 314 289
M  V30 355 9 307 289
M  V30 356 9 327 289
M  V30 357 9 320 289
M  V30 358 1 330 340
M  V30 359 2 330 337
M  V30 360 1 331 330
M  V30 361 2 332 331
M  V30 362 1 332 334
M  V30 363 1 333 331
M  V30 364 2 334 336
M  V30 365 1 335 332
M  V30 366 1 336 337
M  V30 367 1 336 338
M  V30 368 1 337 339
M  V30 369 2 341 335
M  V30 370 1 342 335
M  V30 371 1 343 353
M  V30 372 2 343 350
M  V30 373 1 344 343
M  V30 374 2 345 344
M  V30 375 1 345 347
M  V30 376 1 346 344
M  V30 377 2 347 349
M  V30 378 1 348 345
M  V30 379 1 349 350
M  V30 380 1 349 351
M  V30 381 1 350 352
M  V30 382 2 354 348
M  V30 383 1 355 348
M  V30 384 1 356 366
M  V30 385 2 356 363
M  V30 386 1 357 356
M  V30 387 2 358 357
M  V30 388 1 358 360
M  V30 389 1 359 357
M  V30 390 2 360 362
M  V30 391 1 361 358
M  V30 392 1 362 363
M  V30 393 1 362 364
M  V30 394 1 363 365
M  V30 395 2 367 361
M  V30 396 1 368 361
M  V30 397 9 341 329
M  V30 398 9 334 329
M  V30 399 9 354 329
M  V30 400 9 347 329
M  V30 401 9 367 329
M  V30 402 9 360 329
M  V30 403 1 370 380
M  V30 404 2 370 377
M  V30 405 1 371 370
M  V30 406 2 372 371
M  V30 407 1 372 374
M  V30 408 1 373 371
M  V30 409 2 374 376
M  V30 410 1 375 372
M  V30 411 1 376 377
M  V30 412 1 376 378
M  V30 413 1 377 379
M  V30 414 2 381 375
M  V30 415 1 382 375
M  V30 416 1 383 393
M  V30 417 2 383 390
M  V30 418 1 384 383
M  V30 419 2 385 384
M  V30 420 1 385 387
M  V30 421 1 386 384
M  V30 422 2 387 389
M  V30 423 1 388 385
M  V30 424 1 389 390
M  V30 425 1 389 391
M  V30 426 1 390 392
M  V30 427 2 394 388
M  V30 428 1 395 388
M  V30 429 1 396 406
M  V30 430 2 396 403
M  V30 431 1 397 396
M  V30 432 2 398 397
M  V30 433 1 398 400
M  V30 434 1 399 397
M  V30 435 2 400 402
M  V30 436 1 401 398
M  V30 437 1 402 403
M  V30 438 1 402 404
M  V30 439 1 403 405
M  V30 440 2 407 401
M  V30 441 1 408 401
M  V30 442 9 381 369
M  V30 443 9 374 369
M  V30 444 9 394 369
M  V30 445 9 387 369
M  V30 446 9 407 369
M  V30 447 9 400 369
M  V30 448 1 410 420
M  V30 449 2 410 417
M  V30 450 1 411 410
M  V30 451 2 412 411
M  V30 452 1 412 414
M  V30 453 1 413 411
M  V30 454 2 414 416
M  V30 455 1 415 412
M  V30 456 1 416 417
M  V30 457 1 416 418
M  V30 458 1 417 419
M  V30 459 2 421 415
M  V30 460 1 422 415
M  V30 461 1 423 433
M  V30 462 2 423 430
M  V30 463 1 424 423
M  V30 464 2 425 424
M  V30 465 1 425 427
M  V30 466 1 426 424
M  V30 467 2 427 429
M  V30 468 1 428 425
M  V30 469 1 429 430
M  V30 470 1 429 431
M  V30 471 1 430 432
M  V30 472 2 434 428
M  V30 473 1 435 428
M  V30 474 1 436 446
M  V30 475 2 436 443
M  V30 476 1 437 436
M  V30 477 2 438 437
M  V30 478 1 438 440
M  V30 479 1 439 437
M  V30 480 2 440 442
M  V30 481 1 441 438
M  V30 482 1 442 443
M  V30 483 1 442 444
M  V30 484 1 443 445
M  V30 485 2 447 441
M  V30 486 1 448 441
M  V30 487 9 421 409
M  V30 488 9 414 409
M  V30 489 9 434 409
M  V30 490 9 427 409
M  V30 491 9 447 409
M  V30 492 9 440 409
M  V30 493 1 450 460
M  V30 494 2 450 457
M  V30 495 1 451 450
M  V30 496 2 452 451
M  V30 497 1 452 454
M  V30 498 1 453 451
M  V30 499 2 454 456
M  V30 500 1 455 452
M  V30 501 1 456 457
M  V30 502 1 456 458
M  V30 503 1 457 459
M  V30 504 2 461 455
M  V30 505 1 462 455
M  V30 506 1 463 473
M  V30 507 2 463 470
M  V30 508 1 464 463
M  V30 509 2 465 464
M  V30 510 1 465 467
M  V30 511 1 466 464
M  V30 512 2 467 469
M  V30 513 1 468 465
M  V30 514 1 469 470
M  V30 515 1 469 471
M  V30 516 1 470 472
M  V30 517 2 474 468
M  V30 518 1 475 468
M  V30 519 1 476 486
M  V30 520 2 476 483
M  V30 521 1 477 476
M  V30 522 2 478 477
M  V30 523 1 478 480
M  V30 524 1 479 477
M  V30 525 2 480 482
M  V30 526 1 481 478
M  V30 527 1 482 483
M  V30 528 1 482 484
M  V30 529 1 483 485
M  V30 530 2 487 481
M  V30 531 1 488 481
M  V30 532 9 461 449
M  V30 533 9 454 449
M  V30 534 9 487 449
M  V30 535 9 480 449
M  V30 536 9 474 449
M  V30 537 9 467 449
M  V30 538 1 490 500
M  V30 539 2 490 497
M  V30 540 1 491 490
M  V30 541 2 492 491
M  V30 542 1 492 494
M  V30 543 1 493 491
M  V30 544 2 494 496
M  V30 545 1 495 492
M  V30 546 1 496 497
M  V30 547 1 496 498
M  V30 548 1 497 499
M  V30 549 2 501 495
M  V30 550 1 502 495
M  V30 551 1 503 513
M  V30 552 2 503 510
M  V30 553 1 504 503
M  V30 554 2 505 504
M  V30 555 1 505 507
M  V30 556 1 506 504
M  V30 557 2 507 509
M  V30 558 1 508 505
M  V30 559 1 509 510
M  V30 560 1 509 511
M  V30 561 1 510 512
M  V30 562 2 514 508
M  V30 563 1 515 508
M  V30 564 1 516 526
M  V30 565 2 516 523
M  V30 566 1 517 516
M  V30 567 2 518 517
M  V30 568 1 518 520
M  V30 569 1 519 517
M  V30 570 2 520 522
M  V30 571 1 521 518
M  V30 572 1 522 523
M  V30 573 1 522 524
M  V30 574 1 523 525
M  V30 575 2 527 521
M  V30 576 1 528 521
M  V30 577 9 501 489
M  V30 578 9 494 489
M  V30 579 9 527 489
M  V30 580 9 520 489
M  V30 581 9 514 489
M  V30 582 9 507 489
M  V30 583 1 530 540
M  V30 584 2 530 537
M  V30 585 1 531 530
M  V30 586 2 532 531
M  V30 587 1 532 534
M  V30 588 1 533 531
M  V30 589 2 534 536
M  V30 590 1 535 532
M  V30 591 1 536 537
M  V30 592 1 536 538
M  V30 593 1 537 539
M  V30 594 2 541 535
M  V30 595 1 542 535
M  V30 596 1 543 553
M  V30 597 2 543 550
M  V30 598 1 544 543
M  V30 599 2 545 544
M  V30 600 1 545 547
M  V30 601 1 546 544
M  V30 602 2 547 549
M  V30 603 1 548 545
M  V30 604 1 549 550
M  V30 605 1 549 551
M  V30 606 1 550 552
M  V30 607 2 554 548
M  V30 608 1 555 548
M  V30 609 1 556 566
M  V30 610 2 556 563
M  V30 611 1 557 556
M  V30 612 2 558 557
M  V30 613 1 558 560
M  V30 614 1 559 557
M  V30 615 2 560 562
M  V30 616 1 561 558
M  V30 617 1 562 563
M  V30 618 1 562 564
M  V30 619 1 563 565
M  V30 620 2 567 561
M  V30 621 1 568 561
M  V30 622 9 541 529
M  V30 623 9 534 529
M  V30 624 9 567 529
M  V30 625 9 560 529
M  V30 626 9 554 529
M  V30 627 9 547 529
M  V30 628 1 570 580
M  V30 629 2 570 577
M  V30 630 1 571 570
M  V30 631 2 572 571
M  V30 632 1 572 574
M  V30 633 1 573 571
M  V30 634 2 574 576
M  V30 635 1 575 572
M  V30 636 1 576 577
M  V30 637 1 576 578
M  V30 638 1 577 579
M  V30 639 2 581 575
M  V30 640 1 582 575
M  V30 641 1 583 593
M  V30 642 2 583 590
M  V30 643 1 584 583
M  V30 644 2 585 584
M  V30 645 1 585 587
M  V30 646 1 586 584
M  V30 647 2 587 589
M  V30 648 1 588 585
M  V30 649 1 589 590
M  V30 650 1 589 591
M  V30 651 1 590 592
M  V30 652 2 594 588
M  V30 653 1 595 588
M  V30 654 1 596 606
M  V30 655 2 596 603
M  V30 656 1 597 596
M  V30 657 2 598 597
M  V30 658 1 598 600
M  V30 659 1 599 597
M  V30 660 2 600 602
M  V30 661 1 601 598
M  V30 662 1 602 603
M  V30 663 1 602 604
M  V30 664 1 603 605
M  V30 665 2 607 601
M  V30 666 1 608 601
M  V30 667 9 581 569
M  V30 668 9 574 569
M  V30 669 9 607 569
M  V30 670 9 600 569
M  V30 671 9 594 569
M  V30 672 9 587 569
M  V30 673 1 11 301
M  V30 674 1 18 341
M  V30 675 1 26 381
M  V30 676 1 1 421
M  V30 677 1 66 461
M  V30 678 1 74 501
M  V30 679 1 49 354
M  V30 680 1 59 327
M  V30 681 1 107 487
M  V30 682 1 114 314
M  V30 683 1 122 447
M  V30 684 1 97 581
M  V30 685 1 162 434
M  V30 686 1 170 407
M  V30 687 1 145 541
M  V30 688 1 155 607
M  V30 689 1 210 527
M  V30 690 1 218 474
M  V30 691 1 193 594
M  V30 692 1 203 554
M  V30 693 1 251 367
M  V30 694 1 258 514
M  V30 695 1 266 567
M  V30 696 1 241 394
M  V30 END BOND
M  V30 END CTAB
M  END

$$$$
