
     RDKit          3D

  0  0  0  0  0  0  0  0  0  0999 V3000
M  V30 BEGIN CTAB
M  V30 COUNTS 608 696 0 0 0
M  V30 BEGIN ATOM
M  V30 1 C -4.9835 -2.1900 5.7161 0
M  V30 2 C -4.3144 -2.0378 4.5008 0
M  V30 3 C -3.1765 -1.2599 4.4270 0
M  V30 4 C -2.6780 -0.6370 5.5687 0
M  V30 5 C -1.5722 0.3331 5.4463 0
M  V30 6 C -1.9146 1.6757 5.5485 0
M  V30 7 C -1.0037 2.7053 5.3253 0
M  V30 8 C -1.5570 4.0572 5.1843 0
M  V30 9 C -2.5426 4.5098 6.0651 0
M  V30 10 C -3.2696 5.6434 5.7770 0
M  V30 11 C -3.0031 6.3670 4.6116 0
M  V30 12 C -1.9544 5.9739 3.7761 0
M  V30 13 C -1.2492 4.8207 4.0559 0
M  V30 14 C 0.3371 2.3746 5.0886 0
M  V30 15 C 1.4711 3.3095 5.0153 0
M  V30 16 C 2.5215 3.0080 4.1407 0
M  V30 17 C 3.7501 3.6169 4.2735 0
M  V30 18 C 3.9222 4.6141 5.2347 0
M  V30 19 C 2.8358 5.0399 5.9978 0
M  V30 20 C 1.6282 4.3692 5.9081 0
M  V30 21 C 0.6702 1.0276 5.0031 0
M  V30 22 C -0.2580 -0.0024 5.1193 0
M  V30 23 C 0.2893 -1.3525 4.8946 0
M  V30 24 C 0.1968 -2.3808 5.8275 0
M  V30 25 C 0.9578 -3.5275 5.6772 0
M  V30 26 C 1.8438 -3.6445 4.6044 0
M  V30 27 C 1.8756 -2.6572 3.6206 0
M  V30 28 C 1.0876 -1.5362 3.7583 0
M  V30 29 C -3.3169 -0.8335 6.7919 0
M  V30 30 C -4.4594 -1.6044 6.8716 0
M  V30 31 H -4.7367 -2.4847 3.6164 0
M  V30 32 H -2.6900 -1.1046 3.4776 0
M  V30 33 H -2.9460 1.9243 5.7419 0
M  V30 34 H -2.7483 3.9667 6.9743 0
M  V30 35 H -4.0319 5.9941 6.4533 0
M  V30 36 H -1.7672 6.5249 2.8690 0
M  V30 37 H -0.4896 4.4730 3.3755 0
M  V30 38 H 2.3735 2.2778 3.3626 0
M  V30 39 H 4.5783 3.3507 3.6371 0
M  V30 40 H 2.9737 5.8371 6.7108 0
M  V30 41 H 0.8239 4.6439 6.5715 0
M  V30 42 H 1.7053 0.7615 4.8736 0
M  V30 43 H -0.4272 -2.2681 6.6997 0
M  V30 44 H 0.9415 -4.2930 6.4377 0
M  V30 45 H 2.5132 -2.8018 2.7640 0
M  V30 46 H 1.0917 -0.7827 2.9868 0
M  V30 47 H -2.9248 -0.3763 7.6879 0
M  V30 48 H -4.9328 -1.7770 7.8269 0
M  V30 49 C 6.0659 5.3544 2.2467 0
M  V30 50 C 5.1448 5.2709 1.2027 0
M  V30 51 C 5.0117 4.0934 0.5011 0
M  V30 52 C 5.8349 2.9960 0.7756 0
M  V30 53 C 5.8410 1.8829 -0.1872 0
M  V30 54 C 5.8795 2.2559 -1.5269 0
M  V30 55 C 5.8739 1.3442 -2.5784 0
M  V30 56 C 5.7746 1.9455 -3.9169 0
M  V30 57 C 6.5857 3.0443 -4.2207 0
M  V30 58 C 6.3230 3.8312 -5.3198 0
M  V30 59 C 5.2533 3.5202 -6.1638 0
M  V30 60 C 4.5058 2.3625 -5.9226 0
M  V30 61 C 4.7592 1.5909 -4.8054 0
M  V30 62 C 5.8487 -0.0217 -2.2748 0
M  V30 63 C 5.8494 -1.1364 -3.2372 0
M  V30 64 C 5.0030 -2.2216 -2.9881 0
M  V30 65 C 5.1322 -3.3987 -3.6939 0
M  V30 66 C 6.0875 -3.4941 -4.7043 0
M  V30 67 C 6.8728 -2.3878 -5.0249 0
M  V30 68 C 6.7610 -1.2215 -4.2875 0
M  V30 69 C 5.8741 -0.3954 -0.9342 0
M  V30 70 C 5.8599 0.5174 0.1154 0
M  V30 71 C 5.7430 -0.0677 1.4595 0
M  V30 72 C 6.5807 -1.1287 1.8150 0
M  V30 73 C 6.3166 -1.8868 2.9349 0
M  V30 74 C 5.2139 -1.5856 3.7383 0
M  V30 75 C 4.4338 -0.4639 3.4423 0
M  V30 76 C 4.6915 0.2799 2.3072 0
M  V30 77 C 6.7176 3.0698 1.8517 0
M  V30 78 C 6.8221 4.2343 2.5931 0
M  V30 79 H 4.5373 6.1286 0.9685 0
M  V30 80 H 4.2752 4.0225 -0.2821 0
M  V30 81 H 5.9041 3.3069 -1.7647 0
M  V30 82 H 7.4186 3.2908 -3.5810 0
M  V30 83 H 6.9427 4.6832 -5.5470 0
M  V30 84 H 3.6760 2.1273 -6.5679 0
M  V30 85 H 4.1408 0.7370 -4.5833 0
M  V30 86 H 4.2480 -2.1459 -2.2231 0
M  V30 87 H 4.4985 -4.2451 -3.4887 0
M  V30 88 H 7.6213 -2.4774 -5.7953 0
M  V30 89 H 7.4228 -0.3978 -4.5023 0
M  V30 90 H 5.8940 -1.4465 -0.6953 0
M  V30 91 H 7.4350 -1.3687 1.2015 0
M  V30 92 H 6.9611 -2.7053 3.2090 0
M  V30 93 H 3.5797 -0.2422 4.0601 0
M  V30 94 H 4.0520 1.1029 2.0339 0
M  V30 95 H 7.3619 2.2372 2.0847 0
M  V30 96 H 7.5502 4.3141 3.3837 0
M  V30 97 C -3.4179 7.5398 -5.8092 0
M  V30 98 C -2.2873 6.7367 -5.6291 0
M  V30 99 C -1.5930 6.7904 -4.4414 0
M  V30 100 C -1.9603 7.6834 -3.4264 0
M  V30 101 C -1.0353 7.8242 -2.2885 0
M  V30 102 C 0.3120 7.9077 -2.6371 0
M  V30 103 C 1.3433 7.9404 -1.7075 0
M  V30 104 C 2.6878 7.7826 -2.3124 0
M  V30 105 C 3.4162 8.8552 -2.8122 0
M  V30 106 C 4.4791 8.6366 -3.6727 0
M  V30 107 C 4.7833 7.3379 -4.0757 0
M  V30 108 C 4.1224 6.2531 -3.4978 0
M  V30 109 C 3.0924 6.4786 -2.6106 0
M  V30 110 C 1.0177 7.9363 -0.3552 0
M  V30 111 C 1.9739 7.9497 0.7716 0
M  V30 112 C 2.0563 6.8198 1.5859 0
M  V30 113 C 2.8010 6.8433 2.7478 0
M  V30 114 C 3.4222 8.0273 3.1432 0
M  V30 115 C 3.3648 9.1536 2.3238 0
M  V30 116 C 2.6683 9.1014 1.1293 0
M  V30 117 C -0.3256 7.8664 -0.0007 0
M  V30 118 C -1.3588 7.7997 -0.9295 0
M  V30 119 C -2.6987 7.6041 -0.3262 0
M  V30 120 C -3.6142 8.6425 -0.1988 0
M  V30 121 C -4.7561 8.4783 0.5641 0
M  V30 122 C -4.9597 7.2904 1.2653 0
M  V30 123 C -4.0624 6.2348 1.1245 0
M  V30 124 C -2.9557 6.3889 0.3138 0
M  V30 125 C -3.1061 8.4565 -3.6016 0
M  V30 126 C -3.8422 8.3700 -4.7696 0
M  V30 127 H -1.9919 6.0478 -6.4039 0
M  V30 128 H -0.7509 6.1343 -4.2923 0
M  V30 129 H 0.5779 7.9334 -3.6814 0
M  V30 130 H 3.1314 9.8684 -2.5729 0
M  V30 131 H 5.0056 9.4708 -4.1127 0
M  V30 132 H 4.4436 5.2583 -3.7667 0
M  V30 133 H 2.5484 5.6502 -2.1855 0
M  V30 134 H 1.5334 5.9211 1.3013 0
M  V30 135 H 2.8679 5.9824 3.3904 0
M  V30 136 H 3.8808 10.0553 2.6190 0
M  V30 137 H 2.6292 9.9789 0.5029 0
M  V30 138 H -0.5722 7.8548 1.0487 0
M  V30 139 H -3.4249 9.6027 -0.6528 0
M  V30 140 H -5.4515 9.2947 0.6897 0
M  V30 141 H -4.2591 5.3133 1.6472 0
M  V30 142 H -2.2636 5.5711 0.1905 0
M  V30 143 H -3.4147 9.1544 -2.8425 0
M  V30 144 H -4.7112 8.9910 -4.9181 0
M  V30 145 C -6.8630 5.8483 -4.5029 0
M  V30 146 C -8.0027 5.0608 -4.3768 0
M  V30 147 C -7.9560 3.9042 -3.6176 0
M  V30 148 C -6.7879 3.5392 -2.9581 0
M  V30 149 C -6.7563 2.4247 -1.9847 0
M  V30 150 C -6.8234 2.7982 -0.6466 0
M  V30 151 C -6.7310 1.8919 0.4050 0
M  V30 152 C -6.6668 2.5274 1.7416 0
M  V30 153 C -7.8126 3.0452 2.3377 0
M  V30 154 C -7.7159 3.8982 3.4220 0
M  V30 155 C -6.4591 4.3012 3.8682 0
M  V30 156 C -5.3084 3.7314 3.3233 0
M  V30 157 C -5.4175 2.8263 2.2863 0
M  V30 158 C -6.5976 0.5347 0.1091 0
M  V30 159 C -6.5727 -0.5908 1.0573 0
M  V30 160 C -5.7370 -1.6743 0.7626 0
M  V30 161 C -5.9043 -2.8905 1.3871 0
M  V30 162 C -6.8648 -3.0187 2.3918 0
M  V30 163 C -7.5929 -1.9047 2.8032 0
M  V30 164 C -7.4655 -0.7075 2.1203 0
M  V30 165 C -6.5334 0.1710 -1.2340 0
M  V30 166 C -6.5771 1.0764 -2.2892 0
M  V30 167 C -6.3904 0.4569 -3.6167 0
M  V30 168 C -7.3453 0.5063 -4.6267 0
M  V30 169 C -7.2484 -0.3373 -5.7190 0
M  V30 170 C -6.2103 -1.2683 -5.7974 0
M  V30 171 C -5.1993 -1.2593 -4.8370 0
M  V30 172 C -5.2833 -0.3873 -3.7740 0
M  V30 173 C -5.6541 4.3402 -3.0805 0
M  V30 174 C -5.6831 5.4812 -3.8565 0
M  V30 175 H -8.9107 5.3506 -4.8848 0
M  V30 176 H -8.8524 3.3124 -3.5105 0
M  V30 177 H -6.9319 3.8456 -0.4117 0
M  V30 178 H -8.7882 2.8074 1.9402 0
M  V30 179 H -8.6033 4.3286 3.8626 0
M  V30 180 H -4.3497 4.0119 3.7302 0
M  V30 181 H -4.5310 2.3889 1.8553 0
M  V30 182 H -4.9580 -1.5602 0.0273 0
M  V30 183 H -5.2929 -3.7422 1.1320 0
M  V30 184 H -8.3103 -2.0108 3.6014 0
M  V30 185 H -8.0984 0.1218 2.3920 0
M  V30 186 H -6.4824 -0.8769 -1.4775 0
M  V30 187 H -8.1975 1.1604 -4.5416 0
M  V30 188 H -8.0307 -0.3509 -6.4631 0
M  V30 189 H -4.3685 -1.9363 -4.9534 0
M  V30 190 H -4.4947 -0.3641 -3.0387 0
M  V30 191 H -4.7531 4.0722 -2.5526 0
M  V30 192 H -4.8304 6.1385 -3.9146 0
M  V30 193 C -4.8768 4.3992 -7.7487 0
M  V30 194 C -4.0727 4.3047 -6.6135 0
M  V30 195 C -2.9600 3.4875 -6.6175 0
M  V30 196 C -2.6269 2.7574 -7.7576 0
M  V30 197 C -1.5537 1.7505 -7.7008 0
M  V30 198 C -1.9339 0.4254 -7.8825 0
M  V30 199 C -1.0557 -0.6386 -7.7069 0
M  V30 200 C -1.6956 -1.9677 -7.6213 0
M  V30 201 C -2.3180 -2.5651 -8.7116 0
M  V30 202 C -3.1660 -3.6433 -8.5288 0
M  V30 203 C -3.4561 -4.0750 -7.2374 0
M  V30 204 C -2.7788 -3.5313 -6.1462 0
M  V30 205 C -1.8800 -2.5046 -6.3458 0
M  V30 206 C 0.2842 -0.3659 -7.4248 0
M  V30 207 C 1.3881 -1.3401 -7.3859 0
M  V30 208 C 2.3806 -1.1970 -6.4127 0
M  V30 209 C 3.5927 -1.8437 -6.5364 0
M  V30 210 C 3.8111 -2.6926 -7.6181 0
M  V30 211 C 2.7863 -2.9395 -8.5276 0
M  V30 212 C 1.5872 -2.2553 -8.4170 0
M  V30 213 C 0.6606 0.9626 -7.2560 0
M  V30 214 C -0.2304 2.0261 -7.3458 0
M  V30 215 C 0.3601 3.3565 -7.1143 0
M  V30 216 C 0.2636 4.3887 -8.0440 0
M  V30 217 C 1.0512 5.5189 -7.9152 0
M  V30 218 C 1.9666 5.6191 -6.8653 0
M  V30 219 C 2.0073 4.6281 -5.8858 0
M  V30 220 C 1.1967 3.5204 -6.0039 0
M  V30 221 C -3.4109 2.8860 -8.9041 0
M  V30 222 C -4.5263 3.6982 -8.9059 0
M  V30 223 H -4.3806 4.8243 -5.7215 0
M  V30 224 H -2.3686 3.3784 -5.7229 0
M  V30 225 H -2.9668 0.2087 -8.1047 0
M  V30 226 H -2.1631 -2.1788 -9.7078 0
M  V30 227 H -3.6768 -4.0901 -9.3691 0
M  V30 228 H -2.9780 -3.9299 -5.1637 0
M  V30 229 H -1.3677 -2.0602 -5.5075 0
M  V30 230 H 2.2013 -0.5591 -5.5627 0
M  V30 231 H 4.3799 -1.7029 -5.8159 0
M  V30 232 H 2.9639 -3.6049 -9.3575 0
M  V30 233 H 0.8298 -2.3992 -9.1709 0
M  V30 234 H 1.7003 1.1777 -7.0759 0
M  V30 235 H -0.3862 4.2879 -8.8986 0
M  V30 236 H 1.0330 6.2846 -8.6754 0
M  V30 237 H 2.6695 4.7571 -5.0469 0
M  V30 238 H 1.2125 2.7638 -5.2360 0
M  V30 239 H -3.1478 2.3470 -9.8017 0
M  V30 240 H -5.1116 3.8202 -9.8055 0
M  V30 241 C -3.7907 -5.1943 3.3366 0
M  V30 242 C -2.6467 -4.3971 3.2499 0
M  V30 243 C -1.9172 -4.3635 2.0822 0
M  V30 244 C -2.2668 -5.1666 0.9903 0
M  V30 245 C -1.3272 -5.2612 -0.1369 0
M  V30 246 C 0.0226 -5.3422 0.1957 0
M  V30 247 C 1.0401 -5.4141 -0.7486 0
M  V30 248 C 2.3936 -5.3448 -0.1471 0
M  V30 249 C 3.0302 -6.4875 0.3258 0
M  V30 250 C 4.1104 -6.3829 1.1846 0
M  V30 251 C 4.5226 -5.1259 1.6207 0
M  V30 252 C 3.9513 -3.9753 1.0762 0
M  V30 253 C 2.9038 -4.0892 0.1853 0
M  V30 254 C 0.7023 -5.4384 -2.1009 0
M  V30 255 C 1.6391 -5.4536 -3.2355 0
M  V30 256 C 1.3537 -4.6197 -4.3209 0
M  V30 257 C 2.0442 -4.7371 -5.5064 0
M  V30 258 C 3.0888 -5.6545 -5.6095 0
M  V30 259 C 3.4452 -6.4249 -4.5041 0
M  V30 260 C 2.7132 -6.3353 -3.3318 0
M  V30 261 C -0.6515 -5.4244 -2.4336 0
M  V30 262 C -1.6696 -5.3183 -1.4937 0
M  V30 263 C -3.0203 -5.1415 -2.0527 0
M  V30 264 C -3.4605 -6.0074 -3.0577 0
M  V30 265 C -4.5881 -5.7156 -3.7946 0
M  V30 266 C -5.3180 -4.5549 -3.5259 0
M  V30 267 C -4.9253 -3.7261 -2.4702 0
M  V30 268 C -3.7824 -4.0130 -1.7491 0
M  V30 269 C -3.4290 -5.9332 1.0704 0
M  V30 270 C -4.1922 -5.9362 2.2247 0
M  V30 271 H -2.3613 -3.7883 4.0922 0
M  V30 272 H -1.0613 -3.7121 2.0141 0
M  V30 273 H 0.3032 -5.3545 1.2364 0
M  V30 274 H 2.6581 -7.4669 0.0650 0
M  V30 275 H 4.5698 -7.2695 1.5960 0
M  V30 276 H 4.3479 -3.0151 1.3681 0
M  V30 277 H 2.4318 -3.2058 -0.2147 0
M  V30 278 H 0.5713 -3.8841 -4.2359 0
M  V30 279 H 1.7995 -4.1209 -6.3547 0
M  V30 280 H 4.2420 -7.1457 -4.5975 0
M  V30 281 H 2.9587 -6.9878 -2.5096 0
M  V30 282 H -0.9235 -5.4769 -3.4756 0
M  V30 283 H -2.9075 -6.9090 -3.2708 0
M  V30 284 H -4.9262 -6.3843 -4.5690 0
M  V30 285 H -5.4744 -2.8180 -2.2844 0
M  V30 286 H -3.4384 -3.3418 -0.9792 0
M  V30 287 H -3.7199 -6.5645 0.2459 0
M  V30 288 H -5.0557 -6.5759 2.3034 0
M  V30 289 Zn 5.8761 7.0796 4.9479 0 CHG=2
M  V30 290 C 9.7678 4.7627 6.6705 0
M  V30 291 C 8.5271 4.1696 6.4821 0
M  V30 292 C 7.4873 4.9433 5.9735 0
M  V30 293 H 8.3723 3.1322 6.7328 0
M  V30 294 N 7.6527 6.2366 5.6483 0
M  V30 295 C 6.1533 4.4114 5.7676 0
M  V30 296 C 8.8377 6.7950 5.8216 0
M  V30 297 C 9.9271 6.0985 6.3338 0
M  V30 298 H 8.9327 7.8329 5.5412 0
M  V30 299 H 10.8752 6.5954 6.4621 0
M  V30 300 H 10.5963 4.1981 7.0691 0
M  V30 301 N 5.1925 5.1857 5.4332 0
M  V30 302 H 6.0019 3.3459 5.9289 0
M  V30 303 C 4.6553 9.8084 8.7598 0
M  V30 304 C 4.0309 9.8780 7.5227 0
M  V30 305 C 4.4031 8.9723 6.5326 0
M  V30 306 H 3.2726 10.6212 7.3326 0
M  V30 307 N 5.3448 8.0375 6.7381 0
M  V30 308 C 3.7791 8.9591 5.2266 0
M  V30 309 C 5.9256 7.9653 7.9236 0
M  V30 310 C 5.6153 8.8288 8.9676 0
M  V30 311 H 6.6694 7.1941 8.0548 0
M  V30 312 H 6.1180 8.7388 9.9171 0
M  V30 313 H 4.3985 10.5002 9.5471 0
M  V30 314 N 4.0732 8.0429 4.3865 0
M  V30 315 H 3.0359 9.7231 5.0133 0
M  V30 316 C 7.5264 11.1517 2.8331 0
M  V30 317 C 7.1823 9.9988 2.1442 0
M  V30 318 C 6.8095 8.8699 2.8695 0
M  V30 319 H 7.2078 9.9749 1.0665 0
M  V30 320 N 6.7525 8.8693 4.2109 0
M  V30 321 C 6.5169 7.6069 2.2297 0
M  V30 322 C 7.1018 9.9658 4.8629 0
M  V30 323 C 7.4971 11.1317 4.2199 0
M  V30 324 H 7.0709 9.9229 5.9410 0
M  V30 325 H 7.7752 11.9992 4.7967 0
M  V30 326 H 7.8201 12.0472 2.3078 0
M  V30 327 N 6.2647 6.5666 2.9301 0
M  V30 328 H 6.5821 7.5645 1.1449 0
M  V30 329 Zn 4.8756 -4.5656 4.6788 0 CHG=2
M  V30 330 C 3.7166 -9.3547 4.9003 0
M  V30 331 C 2.7829 -8.3371 4.7816 0
M  V30 332 C 3.2265 -7.0172 4.7582 0
M  V30 333 H 1.7313 -8.5645 4.7080 0
M  V30 334 N 4.5283 -6.6947 4.8319 0
M  V30 335 C 2.3100 -5.9036 4.6944 0
M  V30 336 C 5.4115 -7.6716 4.9596 0
M  V30 337 C 5.0573 -9.0140 5.0003 0
M  V30 338 H 6.4484 -7.3880 5.0442 0
M  V30 339 H 5.8176 -9.7700 5.1139 0
M  V30 340 H 3.4120 -10.3896 4.9244 0
M  V30 341 N 2.7450 -4.7141 4.5186 0
M  V30 342 H 1.2506 -6.1147 4.8112 0
M  V30 343 C 3.6196 -3.4586 9.2483 0
M  V30 344 C 3.8002 -2.5154 8.2477 0
M  V30 345 C 4.2163 -2.9437 6.9898 0
M  V30 346 H 3.6256 -1.4691 8.4421 0
M  V30 347 N 4.4258 -4.2428 6.7120 0
M  V30 348 C 4.4960 -2.0206 5.9121 0
M  V30 349 C 4.2610 -5.1367 7.6725 0
M  V30 350 C 3.8632 -4.7932 8.9585 0
M  V30 351 H 4.4543 -6.1660 7.4141 0
M  V30 352 H 3.7508 -5.5573 9.7109 0
M  V30 353 H 3.3038 -3.1645 10.2372 0
M  V30 354 N 4.9033 -2.4633 4.7808 0
M  V30 355 H 4.3990 -0.9587 6.1216 0
M  V30 356 C 9.6057 -5.6168 4.8415 0
M  V30 357 C 8.8111 -5.8059 3.7192 0
M  V30 358 C 7.4800 -5.4015 3.7666 0
M  V30 359 H 9.2185 -6.2572 2.8282 0
M  V30 360 N 6.9461 -4.8346 4.8626 0
M  V30 361 C 6.5814 -5.5415 2.6363 0
M  V30 362 C 7.7089 -4.6484 5.9257 0
M  V30 363 C 9.0468 -5.0229 5.9637 0
M  V30 364 H 7.2411 -4.1857 6.7809 0
M  V30 365 H 9.6345 -4.8591 6.8525 0
M  V30 366 H 10.6396 -5.9259 4.8411 0
M  V30 367 N 5.4320 -4.9882 2.6775 0
M  V30 368 H 6.9364 -6.0906 1.7684 0
M  V30 369 Zn -6.5778 -4.8407 4.9411 0 CHG=2
M  V30 370 C -10.7054 -3.4476 7.1111 0
M  V30 371 C -9.5195 -2.7310 7.1595 0
M  V30 372 C -8.4191 -3.2022 6.4457 0
M  V30 373 H -9.4495 -1.8269 7.7436 0
M  V30 374 N -8.4741 -4.3243 5.7106 0
M  V30 375 C -7.1587 -2.4946 6.4354 0
M  V30 376 C -9.6120 -4.9961 5.6578 0
M  V30 377 C -10.7554 -4.5999 6.3399 0
M  V30 378 H -9.6224 -5.8890 5.0518 0
M  V30 379 H -11.6595 -5.1832 6.2726 0
M  V30 380 H -11.5739 -3.1168 7.6595 0
M  V30 381 N -6.1820 -2.9098 5.7194 0
M  V30 382 H -7.0963 -1.5854 7.0273 0
M  V30 383 C -4.6446 -6.1139 9.2180 0
M  V30 384 C -3.9075 -5.9002 8.0634 0
M  V30 385 C -4.5822 -5.6205 6.8771 0
M  V30 386 H -2.8309 -5.9574 8.0837 0
M  V30 387 N -5.9209 -5.5313 6.8225 0
M  V30 388 C -3.8856 -5.4657 5.6196 0
M  V30 389 C -6.6194 -5.7508 7.9237 0
M  V30 390 C -6.0282 -6.0482 9.1451 0
M  V30 391 H -7.6942 -5.6944 7.8396 0
M  V30 392 H -6.6418 -6.2241 10.0141 0
M  V30 393 H -4.1586 -6.3349 10.1556 0
M  V30 394 N -4.5283 -5.2718 4.5293 0
M  V30 395 H -2.8042 -5.5810 5.6330 0
M  V30 396 C -8.3005 -8.8550 2.8275 0
M  V30 397 C -8.1412 -7.6411 2.1733 0
M  V30 398 C -7.6068 -6.5670 2.8797 0
M  V30 399 H -8.4347 -7.5324 1.1412 0
M  V30 400 N -7.2289 -6.6752 4.1649 0
M  V30 401 C -7.4247 -5.2572 2.2826 0
M  V30 402 C -7.3735 -7.8354 4.7810 0
M  V30 403 C -7.9088 -8.9554 4.1541 0
M  V30 404 H -7.0521 -7.8820 5.8102 0
M  V30 405 H -8.0133 -9.8815 4.6961 0
M  V30 406 H -8.7190 -9.7081 2.3164 0
M  V30 407 N -7.0665 -4.2673 3.0065 0
M  V30 408 H -7.6185 -5.1517 1.2173 0
M  V30 409 Zn -5.9342 7.3575 4.2849 0 CHG=2
M  V30 410 C -4.7525 11.9148 3.0166 0
M  V30 411 C -3.8306 10.8918 3.1791 0
M  V30 412 C -4.2811 9.6432 3.6002 0
M  V30 413 H -2.7829 11.0605 2.9880 0
M  V30 414 N -5.5824 9.3965 3.8338 0
M  V30 415 C -3.3803 8.5413 3.8599 0
M  V30 416 C -6.4561 10.3783 3.6850 0
M  V30 417 C -6.0896 11.6560 3.2817 0
M  V30 418 H -7.4882 10.1438 3.8954 0
M  V30 419 H -6.8375 12.4261 3.1810 0
M  V30 420 H -4.4407 12.8969 2.6965 0
M  V30 421 N -3.8475 7.4350 4.3041 0
M  V30 422 H -2.3156 8.7101 3.7230 0
M  V30 423 C -7.0255 7.4219 9.0057 0
M  V30 424 C -7.1871 6.3117 8.1885 0
M  V30 425 C -6.7797 6.3939 6.8599 0
M  V30 426 H -7.6195 5.4029 8.5766 0
M  V30 427 N -6.2365 7.5129 6.3501 0
M  V30 428 C -6.8931 5.2777 5.9392 0
M  V30 429 C -6.0773 8.5653 7.1338 0
M  V30 430 C -6.4561 8.5684 8.4710 0
M  V30 431 H -5.6334 9.4404 6.6842 0
M  V30 432 H -6.3143 9.4493 9.0760 0
M  V30 433 H -7.3366 7.3943 10.0386 0
M  V30 434 N -6.3306 5.3448 4.7958 0
M  V30 435 H -7.4360 4.3971 6.2735 0
M  V30 436 C -10.6962 7.6287 3.0379 0
M  V30 437 C -9.6589 7.5194 2.1247 0
M  V30 438 C -8.3496 7.4751 2.5968 0
M  V30 439 H -9.8623 7.4679 1.0670 0
M  V30 440 N -8.0559 7.5229 3.9061 0
M  V30 441 C -7.2147 7.4136 1.7038 0
M  V30 442 C -9.0508 7.6407 4.7705 0
M  V30 443 C -10.3848 7.6990 4.3876 0
M  V30 444 H -8.7889 7.7019 5.8151 0
M  V30 445 H -11.1567 7.8032 5.1331 0
M  V30 446 H -11.7238 7.6681 2.7114 0
M  V30 447 N -6.0423 7.1849 2.1558 0
M  V30 448 H -7.3951 7.5819 0.6451 0
M  V30 449 Zn 4.9966 6.5239 -7.0712 0 CHG=2
M  V30 450 C 3.6199 5.5051 -11.6237 0
M  V30 451 C 3.8057 4.5453 -10.6403 0
M  V30 452 C 4.2447 4.9499 -9.3818 0
M  V30 453 H 3.6185 3.5038 -10.8476 0
M  V30 454 N 4.4714 6.2424 -9.0878 0
M  V30 455 C 4.5253 4.0061 -8.3238 0
M  V30 456 C 4.3008 7.1522 -10.0324 0
M  V30 457 C 3.8801 6.8328 -11.3170 0
M  V30 458 H 4.5083 8.1753 -9.7612 0
M  V30 459 H 3.7636 7.6094 -12.0558 0
M  V30 460 H 3.2879 5.2288 -12.6124 0
M  V30 461 N 4.9503 4.4203 -7.1871 0
M  V30 462 H 4.4075 2.9506 -8.5523 0
M  V30 463 C 9.7468 7.4183 -7.5139 0
M  V30 464 C 9.0131 7.7031 -6.3710 0
M  V30 465 C 7.6690 7.3422 -6.3320 0
M  V30 466 H 9.4757 8.1956 -5.5302 0
M  V30 467 N 7.0658 6.7264 -7.3634 0
M  V30 468 C 6.8277 7.5944 -5.1779 0
M  V30 469 C 7.7720 6.4474 -8.4455 0
M  V30 470 C 9.1168 6.7744 -8.5691 0
M  V30 471 H 7.2505 5.9472 -9.2470 0
M  V30 472 H 9.6563 6.5372 -9.4717 0
M  V30 473 H 10.7882 7.6934 -7.5805 0
M  V30 474 N 5.6584 7.0839 -5.1362 0
M  V30 475 H 7.2360 8.1949 -4.3698 0
M  V30 476 C 3.8623 11.3172 -7.1980 0
M  V30 477 C 2.9276 10.3065 -7.0372 0
M  V30 478 C 3.3590 8.9830 -7.0627 0
M  V30 479 H 1.8850 10.5414 -6.8930 0
M  V30 480 N 4.6507 8.6511 -7.2216 0
M  V30 481 C 2.4424 7.8730 -6.9624 0
M  V30 482 C 5.5339 9.6213 -7.3914 0
M  V30 483 C 5.1905 10.9668 -7.3902 0
M  V30 484 H 6.5598 9.3269 -7.5452 0
M  V30 485 H 5.9495 11.7177 -7.5414 0
M  V30 486 H 3.5678 12.3552 -7.1860 0
M  V30 487 N 2.8803 6.6812 -6.8066 0
M  V30 488 H 1.3798 8.0867 -7.0363 0
M  V30 489 Zn 5.7256 -5.2392 -7.3590 0 CHG=2
M  V30 490 C 7.6010 -9.2744 -5.4271 0
M  V30 491 C 7.3835 -8.1024 -4.7169 0
M  V30 492 C 6.8525 -7.0027 -5.3859 0
M  V30 493 H 7.6293 -8.0440 -3.6684 0
M  V30 494 N 6.5338 -7.0464 -6.6893 0
M  V30 495 C 6.6321 -5.7313 -4.7242 0
M  V30 496 C 6.7406 -8.1658 -7.3615 0
M  V30 497 C 7.2758 -9.3070 -6.7751 0
M  V30 498 H 6.4728 -8.1634 -8.4075 0
M  V30 499 H 7.4313 -10.1970 -7.3633 0
M  V30 500 H 8.0155 -10.1461 -4.9449 0
M  V30 501 N 6.2693 -4.7078 -5.3956 0
M  V30 502 H 6.8197 -5.6780 -3.6540 0
M  V30 503 C 9.6396 -2.9517 -9.1039 0
M  V30 504 C 8.4190 -2.3326 -8.8727 0
M  V30 505 C 7.3645 -3.0966 -8.3807 0
M  V30 506 H 8.2912 -1.2812 -9.0764 0
M  V30 507 N 7.4955 -4.4054 -8.1106 0
M  V30 508 C 6.0478 -2.5348 -8.1437 0
M  V30 509 C 8.6615 -4.9897 -8.3271 0
M  V30 510 C 9.7636 -4.3049 -8.8275 0
M  V30 511 H 8.7296 -6.0424 -8.0962 0
M  V30 512 H 10.6936 -4.8245 -8.9932 0
M  V30 513 H 10.4791 -2.3950 -9.4904 0
M  V30 514 N 5.0771 -3.2907 -7.8076 0
M  V30 515 H 5.9179 -1.4645 -8.2883 0
M  V30 516 C 3.7332 -6.9133 -11.4579 0
M  V30 517 C 3.0434 -6.7580 -10.2645 0
M  V30 518 C 3.7285 -6.2747 -9.1522 0
M  V30 519 H 1.9980 -7.0149 -10.1981 0
M  V30 520 N 5.0280 -5.9415 -9.2045 0
M  V30 521 C 3.0861 -6.1158 -7.8632 0
M  V30 522 C 5.6800 -6.0869 -10.3459 0
M  V30 523 C 5.0772 -6.5726 -11.5001 0
M  V30 524 H 6.7227 -5.8069 -10.3498 0
M  V30 525 H 5.6499 -6.6793 -12.4073 0
M  V30 526 H 3.2382 -7.2915 -12.3390 0
M  V30 527 N 3.7715 -5.8085 -6.8296 0
M  V30 528 H 2.0147 -6.2952 -7.8073 0
M  V30 529 Zn -6.4535 -4.3615 -6.4655 0 CHG=2
M  V30 530 C -6.9028 -3.5569 -11.3173 0
M  V30 531 C -6.6648 -2.5610 -10.3837 0
M  V30 532 C -6.6080 -2.9021 -9.0343 0
M  V30 533 H -6.5244 -1.5386 -10.6966 0
M  V30 534 N -6.7614 -4.1657 -8.6060 0
M  V30 535 C -6.4277 -1.9086 -8.0025 0
M  V30 536 C -7.0095 -5.1070 -9.5026 0
M  V30 537 C -7.0912 -4.8549 -10.8657 0
M  V30 538 H -7.1629 -6.1083 -9.1329 0
M  V30 539 H -7.3029 -5.6589 -11.5521 0
M  V30 540 H -6.9534 -3.3317 -12.3714 0
M  V30 541 N -6.2071 -2.2547 -6.7914 0
M  V30 542 H -6.5051 -0.8644 -8.2933 0
M  V30 543 C -10.8772 -2.8473 -5.1313 0
M  V30 544 C -9.8177 -3.0081 -4.2508 0
M  V30 545 C -8.6124 -3.5094 -4.7363 0
M  V30 546 H -9.9268 -2.7526 -3.2088 0
M  V30 547 N -8.4416 -3.8234 -6.0326 0
M  V30 548 C -7.4814 -3.7704 -3.8729 0
M  V30 549 C -9.4582 -3.6775 -6.8657 0
M  V30 550 C -10.6974 -3.1960 -6.4618 0
M  V30 551 H -9.2859 -3.9553 -7.8941 0
M  V30 552 H -11.4987 -3.1018 -7.1770 0
M  V30 553 H -11.8275 -2.4656 -4.7918 0
M  V30 554 N -6.3981 -4.2516 -4.3600 0
M  V30 555 H -7.6123 -3.5961 -2.8078 0
M  V30 556 C -6.7522 -9.1362 -7.2788 0
M  V30 557 C -5.6388 -8.3669 -7.5881 0
M  V30 558 C -5.6381 -7.0204 -7.2356 0
M  V30 559 H -4.7918 -8.8044 -8.0928 0
M  V30 560 N -6.6779 -6.4484 -6.6036 0
M  V30 561 C -4.5129 -6.1434 -7.5032 0
M  V30 562 C -7.7312 -7.1877 -6.3009 0
M  V30 563 C -7.8158 -8.5381 -6.6189 0
M  V30 564 H -8.5394 -6.6886 -5.7886 0
M  V30 565 H -8.6957 -9.1057 -6.3623 0
M  V30 566 H -6.7893 -10.1808 -7.5470 0
M  V30 567 N -4.5029 -4.9744 -6.9940 0
M  V30 568 H -3.6953 -6.5294 -8.1061 0
M  V30 569 Zn -6.2064 7.2587 -7.2555 0 CHG=2
M  V30 570 C -4.3956 7.6095 -11.7542 0
M  V30 571 C -3.6235 7.5302 -10.6050 0
M  V30 572 C -4.2617 7.5146 -9.3669 0
M  V30 573 H -2.5481 7.4868 -10.6700 0
M  V30 574 N -5.6004 7.5551 -9.2546 0
M  V30 575 C -3.5273 7.4967 -8.1213 0
M  V30 576 C -6.3306 7.6469 -10.3528 0
M  V30 577 C -5.7750 7.6797 -11.6260 0
M  V30 578 H -7.4009 7.6978 -10.2231 0
M  V30 579 H -6.4125 7.7588 -12.4919 0
M  V30 580 H -3.9380 7.6244 -12.7313 0
M  V30 581 N -4.1492 7.5174 -7.0010 0
M  V30 582 H -2.4421 7.5174 -8.1786 0
M  V30 583 C -8.1275 11.5360 -6.0594 0
M  V30 584 C -8.2479 10.3860 -5.2907 0
M  V30 585 C -7.5731 9.2378 -5.6953 0
M  V30 586 H -8.8555 10.3833 -4.3996 0
M  V30 587 N -6.8091 9.2125 -6.8007 0
M  V30 588 C -7.6169 8.0004 -4.9375 0
M  V30 589 C -6.6888 10.3119 -7.5242 0
M  V30 590 C -7.3293 11.5010 -7.1932 0
M  V30 591 H -6.0626 10.2486 -8.4010 0
M  V30 592 H -7.2097 12.3748 -7.8131 0
M  V30 593 H -8.6443 12.4414 -5.7806 0
M  V30 594 N -6.8629 7.0273 -5.2712 0
M  V30 595 H -8.2688 7.9600 -4.0680 0
M  V30 596 C -10.6398 5.7593 -8.7926 0
M  V30 597 C -9.5199 4.9470 -8.7168 0
M  V30 598 C -8.3190 5.4932 -8.2669 0
M  V30 599 H -9.5757 3.9096 -9.0058 0
M  V30 600 N -8.2130 6.7769 -7.8887 0
M  V30 601 C -7.1094 4.7081 -8.2035 0
M  V30 602 C -9.2855 7.5479 -7.9725 0
M  V30 603 C -10.5181 7.0895 -8.4183 0
M  V30 604 H -9.1712 8.5806 -7.6831 0
M  V30 605 H -11.3578 7.7633 -8.4748 0
M  V30 606 H -11.5847 5.3727 -9.1418 0
M  V30 607 N -6.0345 5.1854 -7.6986 0
M  V30 608 H -7.1542 3.6978 -8.6017 0
M  V30 END ATOM
M  V30 BEGIN BOND
M  V30 1 2 1 2
M  V30 2 1 2 3
M  V30 3 2 3 4
M  V30 4 1 4 5
M  V30 5 2 5 6
M  V30 6 1 6 7
M  V30 7 1 7 8
M  V30 8 2 8 9
M  V30 9 1 9 10
M  V30 10 2 10 11
M  V30 11 1 11 12
M  V30 12 2 12 13
M  V30 13 2 7 14
M  V30 14 1 14 15
M  V30 15 2 15 16
M  V30 16 1 16 17
M  V30 17 2 17 18
M  V30 18 1 18 19
M  V30 19 2 19 20
M  V30 20 1 14 21
M  V30 21 2 21 22
M  V30 22 1 22 23
M  V30 23 2 23 24
M  V30 24 1 24 25
M  V30 25 2 25 26
M  V30 26 1 26 27
M  V30 27 2 27 28
M  V30 28 1 4 29
M  V30 29 2 29 30
M  V30 30 1 30 1
M  V30 31 1 22 5
M  V30 32 1 28 23
M  V30 33 1 13 8
M  V30 34 1 20 15
M  V30 35 1 2 31
M  V30 36 1 3 32
M  V30 37 1 6 33
M  V30 38 1 9 34
M  V30 39 1 10 35
M  V30 40 1 12 36
M  V30 41 1 13 37
M  V30 42 1 16 38
M  V30 43 1 17 39
M  V30 44 1 19 40
M  V30 45 1 20 41
M  V30 46 1 21 42
M  V30 47 1 24 43
M  V30 48 1 25 44
M  V30 49 1 27 45
M  V30 50 1 28 46
M  V30 51 1 29 47
M  V30 52 1 30 48
M  V30 53 2 49 50
M  V30 54 1 50 51
M  V30 55 2 51 52
M  V30 56 1 52 53
M  V30 57 2 53 54
M  V30 58 1 54 55
M  V30 59 1 55 56
M  V30 60 2 56 57
M  V30 61 1 57 58
M  V30 62 2 58 59
M  V30 63 1 59 60
M  V30 64 2 60 61
M  V30 65 2 55 62
M  V30 66 1 62 63
M  V30 67 2 63 64
M  V30 68 1 64 65
M  V30 69 2 65 66
M  V30 70 1 66 67
M  V30 71 2 67 68
M  V30 72 1 62 69
M  V30 73 2 69 70
M  V30 74 1 70 71
M  V30 75 2 71 72
M  V30 76 1 72 73
M  V30 77 2 73 74
M  V30 78 1 74 75
M  V30 79 2 75 76
M  V30 80 1 52 77
M  V30 81 2 77 78
M  V30 82 1 78 49
M  V30 83 1 70 53
M  V30 84 1 76 71
M  V30 85 1 61 56
M  V30 86 1 68 63
M  V30 87 1 50 79
M  V30 88 1 51 80
M  V30 89 1 54 81
M  V30 90 1 57 82
M  V30 91 1 58 83
M  V30 92 1 60 84
M  V30 93 1 61 85
M  V30 94 1 64 86
M  V30 95 1 65 87
M  V30 96 1 67 88
M  V30 97 1 68 89
M  V30 98 1 69 90
M  V30 99 1 72 91
M  V30 100 1 73 92
M  V30 101 1 75 93
M  V30 102 1 76 94
M  V30 103 1 77 95
M  V30 104 1 78 96
M  V30 105 2 97 98
M  V30 106 1 98 99
M  V30 107 2 99 100
M  V30 108 1 100 101
M  V30 109 2 101 102
M  V30 110 1 102 103
M  V30 111 1 103 104
M  V30 112 2 104 105
M  V30 113 1 105 106
M  V30 114 2 106 107
M  V30 115 1 107 108
M  V30 116 2 108 109
M  V30 117 2 103 110
M  V30 118 1 110 111
M  V30 119 2 111 112
M  V30 120 1 112 113
M  V30 121 2 113 114
M  V30 122 1 114 115
M  V30 123 2 115 116
M  V30 124 1 110 117
M  V30 125 2 117 118
M  V30 126 1 118 119
M  V30 127 2 119 120
M  V30 128 1 120 121
M  V30 129 2 121 122
M  V30 130 1 122 123
M  V30 131 2 123 124
M  V30 132 1 100 125
M  V30 133 2 125 126
M  V30 134 1 126 97
M  V30 135 1 118 101
M  V30 136 1 124 119
M  V30 137 1 109 104
M  V30 138 1 116 111
M  V30 139 1 98 127
M  V30 140 1 99 128
M  V30 141 1 102 129
M  V30 142 1 105 130
M  V30 143 1 106 131
M  V30 144 1 108 132
M  V30 145 1 109 133
M  V30 146 1 112 134
M  V30 147 1 113 135
M  V30 148 1 115 136
M  V30 149 1 116 137
M  V30 150 1 117 138
M  V30 151 1 120 139
M  V30 152 1 121 140
M  V30 153 1 123 141
M  V30 154 1 124 142
M  V30 155 1 125 143
M  V30 156 1 126 144
M  V30 157 2 145 146
M  V30 158 1 146 147
M  V30 159 2 147 148
M  V30 160 1 148 149
M  V30 161 2 149 150
M  V30 162 1 150 151
M  V30 163 1 151 152
M  V30 164 2 152 153
M  V30 165 1 153 154
M  V30 166 2 154 155
M  V30 167 1 155 156
M  V30 168 2 156 157
M  V30 169 2 151 158
M  V30 170 1 158 159
M  V30 171 2 159 160
M  V30 172 1 160 161
M  V30 173 2 161 162
M  V30 174 1 162 163
M  V30 175 2 163 164
M  V30 176 1 158 165
M  V30 177 2 165 166
M  V30 178 1 166 167
M  V30 179 2 167 168
M  V30 180 1 168 169
M  V30 181 2 169 170
M  V30 182 1 170 171
M  V30 183 2 171 172
M  V30 184 1 148 173
M  V30 185 2 173 174
M  V30 186 1 174 145
M  V30 187 1 166 149
M  V30 188 1 172 167
M  V30 189 1 157 152
M  V30 190 1 164 159
M  V30 191 1 146 175
M  V30 192 1 147 176
M  V30 193 1 150 177
M  V30 194 1 153 178
M  V30 195 1 154 179
M  V30 196 1 156 180
M  V30 197 1 157 181
M  V30 198 1 160 182
M  V30 199 1 161 183
M  V30 200 1 163 184
M  V30 201 1 164 185
M  V30 202 1 165 186
M  V30 203 1 168 187
M  V30 204 1 169 188
M  V30 205 1 171 189
M  V30 206 1 172 190
M  V30 207 1 173 191
M  V30 208 1 174 192
M  V30 209 2 193 194
M  V30 210 1 194 195
M  V30 211 2 195 196
M  V30 212 1 196 197
M  V30 213 2 197 198
M  V30 214 1 198 199
M  V30 215 1 199 200
M  V30 216 2 200 201
M  V30 217 1 201 202
M  V30 218 2 202 203
M  V30 219 1 203 204
M  V30 220 2 204 205
M  V30 221 2 199 206
M  V30 222 1 206 207
M  V30 223 2 207 208
M  V30 224 1 208 209
M  V30 225 2 209 210
M  V30 226 1 210 211
M  V30 227 2 211 212
M  V30 228 1 206 213
M  V30 229 2 213 214
M  V30 230 1 214 215
M  V30 231 2 215 216
M  V30 232 1 216 217
M  V30 233 2 217 218
M  V30 234 1 218 219
M  V30 235 2 219 220
M  V30 236 1 196 221
M  V30 237 2 221 222
M  V30 238 1 222 193
M  V30 239 1 214 197
M  V30 240 1 220 215
M  V30 241 1 205 200
M  V30 242 1 212 207
M  V30 243 1 194 223
M  V30 244 1 195 224
M  V30 245 1 198 225
M  V30 246 1 201 226
M  V30 247 1 202 227
M  V30 248 1 204 228
M  V30 249 1 205 229
M  V30 250 1 208 230
M  V30 251 1 209 231
M  V30 252 1 211 232
M  V30 253 1 212 233
M  V30 254 1 213 234
M  V30 255 1 216 235
M  V30 256 1 217 236
M  V30 257 1 219 237
M  V30 258 1 220 238
M  V30 259 1 221 239
M  V30 260 1 222 240
M  V30 261 2 241 242
M  V30 262 1 242 243
M  V30 263 2 243 244
M  V30 264 1 244 245
M  V30 265 2 245 246
M  V30 266 1 246 247
M  V30 267 1 247 248
M  V30 268 2 248 249
M  V30 269 1 249 250
M  V30 270 2 250 251
M  V30 271 1 251 252
M  V30 272 2 252 253
M  V30 273 2 247 254
M  V30 274 1 254 255
M  V30 275 2 255 256
M  V30 276 1 256 257
M  V30 277 2 257 258
M  V30 278 1 258 259
M  V30 279 2 259 260
M  V30 280 1 254 261
M  V30 281 2 261 262
M  V30 282 1 262 263
M  V30 283 2 263 264
M  V30 284 1 264 265
M  V30 285 2 265 266
M  V30 286 1 266 267
M  V30 287 2 267 268
M  V30 288 1 244 269
M  V30 289 2 269 270
M  V30 290 1 270 241
M  V30 291 1 262 245
M  V30 292 1 268 263
M  V30 293 1 253 248
M  V30 294 1 260 255
M  V30 295 1 242 271
M  V30 296 1 243 272
M  V30 297 1 246 273
M  V30 298 1 249 274
M  V30 299 1 250 275
M  V30 300 1 252 276
M  V30 301 1 253 277
M  V30 302 1 256 278
M  V30 303 1 257 279
M  V30 304 1 259 280
M  V30 305 1 260 281
M  V30 306 1 261 282
M  V30 307 1 264 283
M  V30 308 1 265 284
M  V30 309 1 267 285
M  V30 310 1 268 286
M  V30 311 1 269 287
M  V30 312 1 270 288
M  V30 313 1 290 300
M  V30 314 2 290 297
M  V30 315 1 291 290
M  V30 316 2 292 291
M  V30 317 1 292 294
M  V30 318 1 293 291
M  V30 319 2 294 296
M  V30 320 1 295 292
M  V30 321 1 296 297
M  V30 322 1 296 298
M  V30 323 1 297 299
M  V30 324 2 301 295
M  V30 325 1 302 295
M  V30 326 1 303 313
M  V30 327 2 303 310
M  V30 328 1 304 303
M  V30 329 2 305 304
M  V30 330 1 305 307
M  V30 331 1 306 304
M  V30 332 2 307 309
M  V30 333 1 308 305
M  V30 334 1 309 310
M  V30 335 1 309 311
M  V30 336 1 310 312
M  V30 337 2 314 308
M  V30 338 1 315 308
M  V30 339 1 316 326
M  V30 340 2 316 323
M  V30 341 1 317 316
M  V30 342 2 318 317
M  V30 343 1 318 320
M  V30 344 1 319 317
M  V30 345 2 320 322
M  V30 346 1 321 318
M  V30 347 1 322 323
M  V30 348 1 322 324
M  V30 349 1 323 325
M  V30 350 2 327 321
M  V30 351 1 328 321
M  V30 352 9 301 289
M  V30 353 9 294 289
M  V30 354 9 314 289
M  V30 355 9 307 289
M  V30 356 9 327 289
M  V30 357 9 320 289
M  V30 358 1 330 340
M  V30 359 2 330 337
M  V30 360 1 331 330
M  V30 361 2 332 331
M  V30 362 1 332 334
M  V30 363 1 333 331
M  V30 364 2 334 336
M  V30 365 1 335 332
M  V30 366 1 336 337
M  V30 367 1 336 338
M  V30 368 1 337 339
M  V30 369 2 341 335
M  V30 370 1 342 335
M  V30 371 1 343 353
M  V30 372 2 343 350
M  V30 373 1 344 343
M  V30 374 2 345 344
M  V30 375 1 345 347
M  V30 376 1 346 344
M  V30 377 2 347 349
M  V30 378 1 348 345
M  V30 379 1 349 350
M  V30 380 1 349 351
M  V30 381 1 350 352
M  V30 382 2 354 348
M  V30 383 1 355 348
M  V30 384 1 356 366
M  V30 385 2 356 363
M  V30 386 1 357 356
M  V30 387 2 358 357
M  V30 388 1 358 360
M  V30 389 1 359 357
M  V30 390 2 360 362
M  V30 391 1 361 358
M  V30 392 1 362 363
M  V30 393 1 362 364
M  V30 394 1 363 365
M  V30 395 2 367 361
M  V30 396 1 368 361
M  V30 397 9 341 329
M  V30 398 9 334 329
M  V30 399 9 354 329
M  V30 400 9 347 329
M  V30 401 9 367 329
M  V30 402 9 360 329
M  V30 403 1 370 380
M  V30 404 2 370 377
M  V30 405 1 371 370
M  V30 406 2 372 371
M  V30 407 1 372 374
M  V30 408 1 373 371
M  V30 409 2 374 376
M  V30 410 1 375 372
M  V30 411 1 376 377
M  V30 412 1 376 378
M  V30 413 1 377 379
M  V30 414 2 381 375
M  V30 415 1 382 375
M  V30 416 1 383 393
M  V30 417 2 383 390
M  V30 418 1 384 383
M  V30 419 2 385 384
M  V30 420 1 385 387
M  V30 421 1 386 384
M  V30 422 2 387 389
M  V30 423 1 388 385
M  V30 424 1 389 390
M  V30 425 1 389 391
M  V30 426 1 390 392
M  V30 427 2 394 388
M  V30 428 1 395 388
M  V30 429 1 396 406
M  V30 430 2 396 403
M  V30 431 1 397 396
M  V30 432 2 398 397
M  V30 433 1 398 400
M  V30 434 1 399 397
M  V30 435 2 400 402
M  V30 436 1 401 398
M  V30 437 1 402 403
M  V30 438 1 402 404
M  V30 439 1 403 405
M  V30 440 2 407 401
M  V30 441 1 408 401
M  V30 442 9 381 369
M  V30 443 9 374 369
M  V30 444 9 394 369
M  V30 445 9 387 369
M  V30 446 9 407 369
M  V30 447 9 400 369
M  V30 448 1 410 420
M  V30 449 2 410 417
M  V30 450 1 411 410
M  V30 451 2 412 411
M  V30 452 1 412 414
M  V30 453 1 413 411
M  V30 454 2 414 416
M  V30 455 1 415 412
M  V30 456 1 416 417
M  V30 457 1 416 418
M  V30 458 1 417 419
M  V30 459 2 421 415
M  V30 460 1 422 415
M  V30 461 1 423 433
M  V30 462 2 423 430
M  V30 463 1 424 423
M  V30 464 2 425 424
M  V30 465 1 425 427
M  V30 466 1 426 424
M  V30 467 2 427 429
M  V30 468 1 428 425
M  V30 469 1 429 430
M  V30 470 1 429 431
M  V30 471 1 430 432
M  V30 472 2 434 428
M  V30 473 1 435 428
M  V30 474 1 436 446
M  V30 475 2 436 443
M  V30 476 1 437 436
M  V30 477 2 438 437
M  V30 478 1 438 440
M  V30 479 1 439 437
M  V30 480 2 440 442
M  V30 481 1 441 438
M  V30 482 1 442 443
M  V30 483 1 442 444
M  V30 484 1 443 445
M  V30 485 2 447 441
M  V30 486 1 448 441
M  V30 487 9 421 409
M  V30 488 9 414 409
M  V30 489 9 434 409
M  V30 490 9 427 409
M  V30 491 9 447 409
M  V30 492 9 440 409
M  V30 493 1 450 460
M  V30 494 2 450 457
M  V30 495 1 451 450
M  V30 496 2 452 451
M  V30 497 1 452 454
M  V30 498 1 453 451
M  V30 499 2 454 456
M  V30 500 1 455 452
M  V30 501 1 456 457
M  V30 502 1 456 458
M  V30 503 1 457 459
M  V30 504 2 461 455
M  V30 505 1 462 455
M  V30 506 1 463 473
M  V30 507 2 463 470
M  V30 508 1 464 463
M  V30 509 2 465 464
M  V30 510 1 465 467
M  V30 511 1 466 464
M  V30 512 2 467 469
M  V30 513 1 468 465
M  V30 514 1 469 470
M  V30 515 1 469 471
M  V30 516 1 470 472
M  V30 517 2 474 468
M  V30 518 1 475 468
M  V30 519 1 476 486
M  V30 520 2 476 483
M  V30 521 1 477 476
M  V30 522 2 478 477
M  V30 523 1 478 480
M  V30 524 1 479 477
M  V30 525 2 480 482
M  V30 526 1 481 478
M  V30 527 1 482 483
M  V30 528 1 482 484
M  V30 529 1 483 485
M  V30 530 2 487 481
M  V30 531 1 488 481
M  V30 532 9 461 449
M  V30 533 9 454 449
M  V30 534 9 474 449
M  V30 535 9 467 449
M  V30 536 9 487 449
M  V30 537 9 480 449
M  V30 538 1 490 500
M  V30 539 2 490 497
M  V30 540 1 491 490
M  V30 541 2 492 491
M  V30 542 1 492 494
M  V30 543 1 493 491
M  V30 544 2 494 496
M  V30 545 1 495 492
M  V30 546 1 496 497
M  V30 547 1 496 498
M  V30 548 1 497 499
M  V30 549 2 501 495
M  V30 550 1 502 495
M  V30 551 1 503 513
M  V30 552 2 503 510
M  V30 553 1 504 503
M  V30 554 2 505 504
M  V30 555 1 505 507
M  V30 556 1 506 504
M  V30 557 2 507 509
M  V30 558 1 508 505
M  V30 559 1 509 510
M  V30 560 1 509 511
M  V30 561 1 510 512
M  V30 562 2 514 508
M  V30 563 1 515 508
M  V30 564 1 516 526
M  V30 565 2 516 523
M  V30 566 1 517 516
M  V30 567 2 518 517
M  V30 568 1 518 520
M  V30 569 1 519 517
M  V30 570 2 520 522
M  V30 571 1 521 518
M  V30 572 1 522 523
M  V30 573 1 522 524
M  V30 574 1 523 525
M  V30 575 2 527 521
M  V30 576 1 528 521
M  V30 577 9 501 489
M  V30 578 9 494 489
M  V30 579 9 514 489
M  V30 580 9 507 489
M  V30 581 9 527 489
M  V30 582 9 520 489
M  V30 583 1 530 540
M  V30 584 2 530 537
M  V30 585 1 531 530
M  V30 586 2 532 531
M  V30 587 1 532 534
M  V30 588 1 533 531
M  V30 589 2 534 536
M  V30 590 1 535 532
M  V30 591 1 536 537
M  V30 592 1 536 538
M  V30 593 1 537 539
M  V30 594 2 541 535
M  V30 595 1 542 535
M  V30 596 1 543 553
M  V30 597 2 543 550
M  V30 598 1 544 543
M  V30 599 2 545 544
M  V30 600 1 545 547
M  V30 601 1 546 544
M  V30 602 2 547 549
M  V30 603 1 548 545
M  V30 604 1 549 550
M  V30 605 1 549 551
M  V30 606 1 550 552
M  V30 607 2 554 548
M  V30 608 1 555 548
M  V30 609 1 556 566
M  V30 610 2 556 563
M  V30 611 1 557 556
M  V30 612 2 558 557
M  V30 613 1 558 560
M  V30 614 1 559 557
M  V30 615 2 560 562
M  V30 616 1 561 558
M  V30 617 1 562 563
M  V30 618 1 562 564
M  V30 619 1 563 565
M  V30 620 2 567 561
M  V30 621 1 568 561
M  V30 622 9 541 529
M  V30 623 9 534 529
M  V30 624 9 554 529
M  V30 625 9 547 529
M  V30 626 9 567 529
M  V30 627 9 560 529
M  V30 628 1 570 580
M  V30 629 2 570 577
M  V30 630 1 571 570
M  V30 631 2 572 571
M  V30 632 1 572 574
M  V30 633 1 573 571
M  V30 634 2 574 576
M  V30 635 1 575 572
M  V30 636 1 576 577
M  V30 637 1 576 578
M  V30 638 1 577 579
M  V30 639 2 581 575
M  V30 640 1 582 575
M  V30 641 1 583 593
M  V30 642 2 583 590
M  V30 643 1 584 583
M  V30 644 2 585 584
M  V30 645 1 585 587
M  V30 646 1 586 584
M  V30 647 2 587 589
M  V30 648 1 588 585
M  V30 649 1 589 590
M  V30 650 1 589 591
M  V30 651 1 590 592
M  V30 652 2 594 588
M  V30 653 1 595 588
M  V30 654 1 596 606
M  V30 655 2 596 603
M  V30 656 1 597 596
M  V30 657 2 598 597
M  V30 658 1 598 600
M  V30 659 1 599 597
M  V30 660 2 600 602
M  V30 661 1 601 598
M  V30 662 1 602 603
M  V30 663 1 602 604
M  V30 664 1 603 605
M  V30 665 2 607 601
M  V30 666 1 608 601
M  V30 667 9 581 569
M  V30 668 9 574 569
M  V30 669 9 594 569
M  V30 670 9 587 569
M  V30 671 9 607 569
M  V30 672 9 600 569
M  V30 673 1 18 301
M  V30 674 1 26 341
M  V30 675 1 1 381
M  V30 676 1 11 421
M  V30 677 1 59 461
M  V30 678 1 66 501
M  V30 679 1 74 354
M  V30 680 1 49 327
M  V30 681 1 107 474
M  V30 682 1 114 314
M  V30 683 1 122 447
M  V30 684 1 97 581
M  V30 685 1 155 434
M  V30 686 1 162 407
M  V30 687 1 170 541
M  V30 688 1 145 594
M  V30 689 1 210 514
M  V30 690 1 218 487
M  V30 691 1 193 607
M  V30 692 1 203 567
M  V30 693 1 251 367
M  V30 694 1 258 527
M  V30 695 1 266 554
M  V30 696 1 241 394
M  V30 END BOND
M  V30 END CTAB
M  END

$$$$
