
     RDKit          3D

  0  0  0  0  0  0  0  0  0  0999 V3000
M  V30 BEGIN CTAB
M  V30 COUNTS 632 720 0 0 0
M  V30 BEGIN ATOM
M  V30 1 C 5.8444 2.4023 6.0179 0
M  V30 2 C 6.3243 1.2391 5.3932 0
M  V30 3 C 5.4595 0.2518 4.9871 0
M  V30 4 C 4.0774 0.3649 5.2166 0
M  V30 5 N 3.2317 -0.6897 4.9344 0
M  V30 6 C 3.6504 -2.0206 5.1161 0
M  V30 7 C 4.5428 -2.3631 6.1342 0
M  V30 8 C 4.8450 -3.6846 6.3777 0
M  V30 9 C 4.2474 -4.6921 5.6233 0
M  V30 10 C 3.3677 -4.3563 4.5951 0
M  V30 11 C 3.0858 -3.0299 4.3329 0
M  V30 12 C 1.8319 -0.4765 4.8928 0
M  V30 13 C 0.9983 -1.2130 5.7348 0
M  V30 14 C -0.3496 -0.9326 5.7902 0
M  V30 15 C -0.8819 0.0892 5.0037 0
M  V30 16 N -2.2397 0.4508 5.1657 0
M  V30 17 C -3.1673 -0.5730 5.3813 0
M  V30 18 C -3.1335 -1.7339 4.5976 0
M  V30 19 C -4.0293 -2.7571 4.8247 0
M  V30 20 C -4.9928 -2.6469 5.8321 0
M  V30 21 C -5.0082 -1.4928 6.6299 0
M  V30 22 C -4.1089 -0.4781 6.4139 0
M  V30 23 C -2.5921 1.7676 5.4008 0
M  V30 24 C -3.9174 2.1831 5.1958 0
M  V30 25 C -4.3109 3.4537 5.5323 0
M  V30 26 C -3.4140 4.3760 6.0874 0
M  V30 27 C -2.0628 3.9943 6.1787 0
M  V30 28 C -1.6624 2.7236 5.8410 0
M  V30 29 C -0.0646 0.7706 4.1012 0
M  V30 30 C 1.2871 0.4893 4.0464 0
M  V30 31 C 3.5939 1.5696 5.7515 0
M  V30 32 C 4.4589 2.5655 6.1337 0
M  V30 33 H 7.3794 1.1358 5.1974 0
M  V30 34 H 5.8520 -0.6318 4.5092 0
M  V30 35 H 4.9613 -1.6011 6.7716 0
M  V30 36 H 5.4822 -3.9491 7.2029 0
M  V30 37 H 2.9301 -5.1370 3.9952 0
M  V30 38 H 2.4092 -2.7701 3.5343 0
M  V30 39 H 1.4174 -1.9638 6.3837 0
M  V30 40 H -0.9827 -1.4647 6.4813 0
M  V30 41 H -2.4130 -1.8132 3.7987 0
M  V30 42 H -4.0262 -3.6331 4.1990 0
M  V30 43 H -5.6817 -1.4376 7.4708 0
M  V30 44 H -4.1118 0.3785 7.0692 0
M  V30 45 H -4.6377 1.4978 4.7807 0
M  V30 46 H -5.3353 3.7513 5.4038 0
M  V30 47 H -1.3139 4.6964 6.5045 0
M  V30 48 H -0.6260 2.4546 5.9608 0
M  V30 49 H -0.4910 1.5221 3.4570 0
M  V30 50 H 1.9285 1.0201 3.3619 0
M  V30 51 H 2.5395 1.6934 5.9332 0
M  V30 52 H 4.0843 3.4466 6.6241 0
M  V30 53 C 8.2533 5.1121 3.9754 0
M  V30 54 C 8.0592 5.6662 2.7067 0
M  V30 55 C 8.1586 4.8875 1.5822 0
M  V30 56 C 8.5432 3.5431 1.6731 0
M  V30 57 N 8.5860 2.7631 0.5245 0
M  V30 58 C 8.7226 3.4062 -0.7043 0
M  V30 59 C 9.6613 4.4335 -0.8692 0
M  V30 60 C 9.6200 5.2541 -1.9694 0
M  V30 61 C 8.6103 5.0940 -2.9363 0
M  V30 62 C 7.8084 3.9461 -2.8531 0
M  V30 63 C 7.8585 3.1081 -1.7644 0
M  V30 64 C 8.3117 1.3845 0.5385 0
M  V30 65 C 8.9624 0.5637 -0.3852 0
M  V30 66 C 8.6504 -0.7767 -0.4620 0
M  V30 67 C 7.6967 -1.3163 0.3989 0
M  V30 68 N 7.3267 -2.6816 0.2834 0
M  V30 69 C 6.9674 -3.0930 -1.0003 0
M  V30 70 C 6.2042 -2.2156 -1.7842 0
M  V30 71 C 5.9340 -2.5032 -3.1006 0
M  V30 72 C 6.4213 -3.6832 -3.6837 0
M  V30 73 C 7.1326 -4.5845 -2.8830 0
M  V30 74 C 7.3974 -4.3006 -1.5579 0
M  V30 75 C 7.4334 -3.4741 1.4104 0
M  V30 76 C 6.5366 -4.5171 1.6877 0
M  V30 77 C 6.5587 -5.1388 2.9170 0
M  V30 78 C 7.4791 -4.7666 3.9094 0
M  V30 79 C 8.4526 -3.8056 3.5774 0
M  V30 80 C 8.4154 -3.1641 2.3666 0
M  V30 81 C 7.0635 -0.5052 1.3391 0
M  V30 82 C 7.3613 0.8408 1.4046 0
M  V30 83 C 8.8285 3.0142 2.9370 0
M  V30 84 C 8.6653 3.7815 4.0696 0
M  V30 85 H 7.7575 6.6959 2.6148 0
M  V30 86 H 7.9248 5.3273 0.6274 0
M  V30 87 H 10.4128 4.5952 -0.1117 0
M  V30 88 H 10.3742 6.0183 -2.0635 0
M  V30 89 H 7.1042 3.7550 -3.6452 0
M  V30 90 H 7.1901 2.2658 -1.6896 0
M  V30 91 H 9.7160 0.9812 -1.0339 0
M  V30 92 H 9.1545 -1.4091 -1.1748 0
M  V30 93 H 5.8168 -1.3119 -1.3417 0
M  V30 94 H 5.3013 -1.8429 -3.6725 0
M  V30 95 H 7.5243 -5.4836 -3.3285 0
M  V30 96 H 7.9786 -4.9904 -0.9670 0
M  V30 97 H 5.8007 -4.7985 0.9524 0
M  V30 98 H 5.8258 -5.8945 3.1590 0
M  V30 99 H 9.2638 -3.5837 4.2520 0
M  V30 100 H 9.1678 -2.4263 2.1350 0
M  V30 101 H 6.3134 -0.9309 1.9851 0
M  V30 102 H 6.8403 1.4788 2.1000 0
M  V30 103 H 9.1968 2.0044 3.0228 0
M  V30 104 H 8.9172 3.3782 5.0356 0
M  V30 105 C 4.8509 7.2102 -3.3203 0
M  V30 106 C 5.2345 6.2250 -2.3975 0
M  V30 107 C 4.7379 6.1974 -1.1137 0
M  V30 108 C 3.7901 7.1484 -0.7115 0
M  V30 109 N 3.0657 7.0066 0.4613 0
M  V30 110 C 3.5859 6.6185 1.6989 0
M  V30 111 C 4.7677 7.1640 2.2066 0
M  V30 112 C 5.1532 6.8968 3.5054 0
M  V30 113 C 4.3853 6.0664 4.3237 0
M  V30 114 C 3.2475 5.4509 3.7822 0
M  V30 115 C 2.8554 5.7241 2.4923 0
M  V30 116 C 1.6817 7.2758 0.4002 0
M  V30 117 C 1.0404 7.9989 1.4058 0
M  V30 118 C -0.3212 8.2070 1.3495 0
M  V30 119 C -1.0754 7.6787 0.2973 0
M  V30 120 N -2.4591 7.8476 0.2493 0
M  V30 121 C -3.2864 7.9207 1.3521 0
M  V30 122 C -2.9509 7.3250 2.5794 0
M  V30 123 C -3.8548 7.3085 3.6136 0
M  V30 124 C -5.1251 7.8936 3.4949 0
M  V30 125 C -5.4532 8.4950 2.2691 0
M  V30 126 C -4.5630 8.4948 1.2269 0
M  V30 127 C -3.1364 7.7635 -1.0055 0
M  V30 128 C -3.5443 6.5067 -1.4467 0
M  V30 129 C -4.3595 6.4019 -2.5535 0
M  V30 130 C -4.8324 7.5597 -3.1742 0
M  V30 131 C -4.3466 8.8095 -2.7937 0
M  V30 132 C -3.4754 8.9063 -1.7228 0
M  V30 133 C -0.4218 6.9907 -0.7297 0
M  V30 134 C 0.9393 6.7898 -0.6758 0
M  V30 135 C 3.4834 8.1990 -1.5930 0
M  V30 136 C 4.0182 8.2473 -2.8554 0
M  V30 137 H 5.8885 5.4396 -2.7384 0
M  V30 138 H 5.0180 5.4068 -0.4361 0
M  V30 139 H 5.3428 7.8491 1.6030 0
M  V30 140 H 6.0009 7.4053 3.9337 0
M  V30 141 H 2.6986 4.7358 4.3738 0
M  V30 142 H 1.9734 5.2564 2.0842 0
M  V30 143 H 1.6140 8.4185 2.2166 0
M  V30 144 H -0.7994 8.8077 2.1063 0
M  V30 145 H -1.9962 6.8404 2.7010 0
M  V30 146 H -3.5971 6.8334 4.5466 0
M  V30 147 H -6.4256 8.9297 2.1059 0
M  V30 148 H -4.8629 8.9557 0.3007 0
M  V30 149 H -3.2401 5.6231 -0.9079 0
M  V30 150 H -4.6997 5.4403 -2.9024 0
M  V30 151 H -4.6463 9.6970 -3.3295 0
M  V30 152 H -3.1069 9.8721 -1.4124 0
M  V30 153 H -0.9833 6.5971 -1.5599 0
M  V30 154 H 1.4388 6.2350 -1.4528 0
M  V30 155 H 2.8215 8.9863 -1.2661 0
M  V30 156 H 3.7985 9.1040 -3.4722 0
M  V30 157 C -6.6259 3.8369 -3.5292 0
M  V30 158 C -7.2115 4.7598 -2.6533 0
M  V30 159 C -7.5205 4.4084 -1.3568 0
M  V30 160 C -7.2560 3.1138 -0.8934 0
M  V30 161 N -7.6677 2.6904 0.3628 0
M  V30 162 C -7.6714 3.4848 1.5048 0
M  V30 163 C -8.7343 3.3786 2.4143 0
M  V30 164 C -8.6558 3.9514 3.6596 0
M  V30 165 C -7.4802 4.6088 4.0663 0
M  V30 166 C -6.4768 4.8208 3.1090 0
M  V30 167 C -6.5749 4.2889 1.8424 0
M  V30 168 C -8.0377 1.3369 0.5233 0
M  V30 169 C -8.8406 0.6948 -0.4206 0
M  V30 170 C -9.0759 -0.6592 -0.3233 0
M  V30 171 C -8.4993 -1.4060 0.7101 0
M  V30 172 N -8.6287 -2.7913 0.7325 0
M  V30 173 C -8.2846 -3.5300 1.9064 0
M  V30 174 C -6.9470 -3.8970 2.0526 0
M  V30 175 C -6.5741 -4.7227 3.0885 0
M  V30 176 C -7.5435 -5.2305 3.9526 0
M  V30 177 C -8.8716 -4.8321 3.8336 0
M  V30 178 C -9.2375 -3.9593 2.8207 0
M  V30 179 C -8.6524 -3.5727 -0.4140 0
M  V30 180 C -9.1996 -4.8633 -0.3515 0
M  V30 181 C -9.1227 -5.7215 -1.4205 0
M  V30 182 C -8.4551 -5.3387 -2.5947 0
M  V30 183 C -7.9062 -4.0490 -2.6516 0
M  V30 184 C -8.0164 -3.1736 -1.5990 0
M  V30 185 C -7.7817 -0.7412 1.7088 0
M  V30 186 C -7.5516 0.6139 1.6129 0
M  V30 187 C -6.5870 2.2181 -1.7423 0
M  V30 188 C -6.2825 2.5683 -3.0352 0
M  V30 189 H -7.4844 5.7336 -3.0235 0
M  V30 190 H -8.0158 5.1171 -0.7122 0
M  V30 191 H -9.6237 2.8371 2.1302 0
M  V30 192 H -9.5119 3.8972 4.3137 0
M  V30 193 H -5.5800 5.3407 3.4084 0
M  V30 194 H -5.7727 4.4236 1.1355 0
M  V30 195 H -9.2818 1.2606 -1.2256 0
M  V30 196 H -9.7154 -1.1450 -1.0430 0
M  V30 197 H -6.2152 -3.5347 1.3473 0
M  V30 198 H -5.5545 -5.0499 3.2050 0
M  V30 199 H -9.6109 -5.1902 4.5338 0
M  V30 200 H -10.2666 -3.6503 2.7199 0
M  V30 201 H -9.6957 -5.1928 0.5473 0
M  V30 202 H -9.5429 -6.7089 -1.3184 0
M  V30 203 H -7.3780 -3.7535 -3.5446 0
M  V30 204 H -7.5675 -2.1964 -1.6676 0
M  V30 205 H -7.3764 -1.2930 2.5405 0
M  V30 206 H -6.9596 1.1146 2.3607 0
M  V30 207 H -6.3048 1.2474 -1.3682 0
M  V30 208 H -5.7299 1.8833 -3.6582 0
M  V30 209 C -4.5785 -3.6728 -5.1914 0
M  V30 210 C -4.0360 -3.8726 -3.9228 0
M  V30 211 C -2.6997 -3.6042 -3.6916 0
M  V30 212 C -1.9007 -3.1251 -4.7252 0
M  V30 213 N -0.5287 -2.8088 -4.4848 0
M  V30 214 C 0.4553 -3.7323 -4.7031 0
M  V30 215 C 0.1757 -4.9657 -5.3185 0
M  V30 216 C 1.1851 -5.8395 -5.6312 0
M  V30 217 C 2.5285 -5.5387 -5.3297 0
M  V30 218 C 2.7880 -4.3434 -4.6370 0
M  V30 219 C 1.7839 -3.4686 -4.3159 0
M  V30 220 C -0.2476 -1.4225 -4.4309 0
M  V30 221 C 0.6875 -0.8581 -5.2989 0
M  V30 222 C 0.9128 0.5009 -5.2818 0
M  V30 223 C 0.2098 1.3161 -4.3937 0
M  V30 224 N 0.4276 2.7168 -4.4051 0
M  V30 225 C 1.7467 3.1493 -4.5914 0
M  V30 226 C 2.7946 2.4563 -3.9723 0
M  V30 227 C 4.1066 2.7536 -4.2750 0
M  V30 228 C 4.4086 3.7888 -5.1650 0
M  V30 229 C 3.3668 4.5350 -5.7167 0
M  V30 230 C 2.0557 4.2075 -5.4526 0
M  V30 231 C -0.6450 3.5737 -4.5524 0
M  V30 232 C -0.5335 4.9257 -4.1801 0
M  V30 233 C -1.5346 5.8198 -4.4671 0
M  V30 234 C -2.7058 5.3934 -5.1162 0
M  V30 235 C -2.8792 4.0213 -5.3426 0
M  V30 236 C -1.8704 3.1283 -5.0770 0
M  V30 237 C -0.7168 0.7519 -3.5182 0
M  V30 238 C -0.9507 -0.6097 -3.5435 0
M  V30 239 C -2.4434 -2.9099 -5.9897 0
M  V30 240 C -3.7748 -3.1882 -6.2253 0
M  V30 241 H -4.6788 -4.2034 -3.1258 0
M  V30 242 H -2.2776 -3.7549 -2.7109 0
M  V30 243 H -0.8363 -5.2015 -5.6049 0
M  V30 244 H 0.9399 -6.7284 -6.1889 0
M  V30 245 H 3.8050 -4.1300 -4.3532 0
M  V30 246 H 2.0081 -2.5693 -3.7658 0
M  V30 247 H 1.2090 -1.4789 -6.0095 0
M  V30 248 H 1.6066 0.9382 -5.9807 0
M  V30 249 H 2.5717 1.6700 -3.2685 0
M  V30 250 H 4.9077 2.2090 -3.8020 0
M  V30 251 H 3.5926 5.3104 -6.4261 0
M  V30 252 H 1.2716 4.7424 -5.9636 0
M  V30 253 H 0.3574 5.2675 -3.6780 0
M  V30 254 H -1.4321 6.8507 -4.1682 0
M  V30 255 H -3.7904 3.6937 -5.8162 0
M  V30 256 H -2.0023 2.0909 -5.3369 0
M  V30 257 H -1.2458 1.3827 -2.8226 0
M  V30 258 H -1.6705 -1.0460 -2.8714 0
M  V30 259 H -1.8221 -2.5403 -6.7900 0
M  V30 260 H -4.1855 -3.0802 -7.2165 0
M  V30 261 C 5.4982 -8.5951 3.0728 0
M  V30 262 C 5.8727 -9.1859 1.8566 0
M  V30 263 C 4.9928 -9.2428 0.8051 0
M  V30 264 C 3.6868 -8.7423 0.9207 0
M  V30 265 N 2.8743 -8.7069 -0.2004 0
M  V30 266 C 3.5754 -8.4063 -1.4081 0
M  V30 267 C 4.0227 -9.3979 -2.2713 0
M  V30 268 C 4.8616 -9.0633 -3.3221 0
M  V30 269 C 5.2021 -7.7297 -3.5312 0
M  V30 270 C 4.6562 -6.7271 -2.7295 0
M  V30 271 C 3.8739 -7.0667 -1.6502 0
M  V30 272 C 1.4903 -8.5486 -0.1599 0
M  V30 273 C 0.7378 -9.1269 0.8671 0
M  V30 274 C -0.6162 -8.8856 0.9585 0
M  V30 275 C -1.2503 -8.0770 0.0151 0
M  V30 276 N -2.6103 -7.7270 0.1850 0
M  V30 277 C -3.4420 -7.7073 -0.9095 0
M  V30 278 C -4.5242 -6.8167 -1.0135 0
M  V30 279 C -5.1344 -6.6102 -2.2291 0
M  V30 280 C -4.6774 -7.2563 -3.3883 0
M  V30 281 C -3.7448 -8.3005 -3.2307 0
M  V30 282 C -3.1481 -8.5227 -2.0182 0
M  V30 283 C -2.9510 -7.2659 1.4625 0
M  V30 284 C -4.1049 -7.6901 2.1256 0
M  V30 285 C -4.3437 -7.2821 3.4221 0
M  V30 286 C -3.4548 -6.4260 4.0844 0
M  V30 287 C -2.3298 -5.9525 3.3902 0
M  V30 288 C -2.0797 -6.3765 2.1063 0
M  V30 289 C -0.5183 -7.5669 -1.0561 0
M  V30 290 C 0.8344 -7.8075 -1.1480 0
M  V30 291 C 3.3055 -8.1618 2.1398 0
M  V30 292 C 4.2012 -8.0778 3.1792 0
M  V30 293 H 6.8755 -9.5546 1.7112 0
M  V30 294 H 5.3226 -9.6853 -0.1205 0
M  V30 295 H 3.7548 -10.4297 -2.1026 0
M  V30 296 H 5.2356 -9.8305 -3.9830 0
M  V30 297 H 4.9135 -5.6999 -2.9239 0
M  V30 298 H 3.4962 -6.3043 -0.9869 0
M  V30 299 H 1.2154 -9.7787 1.5808 0
M  V30 300 H -1.1883 -9.3325 1.7557 0
M  V30 301 H -4.8403 -6.2529 -0.1514 0
M  V30 302 H -5.9331 -5.8907 -2.3182 0
M  V30 303 H -3.5197 -8.9577 -4.0556 0
M  V30 304 H -2.4351 -9.3255 -1.9132 0
M  V30 305 H -4.7862 -8.3700 1.6392 0
M  V30 306 H -5.1996 -7.6628 3.9537 0
M  V30 307 H -1.6833 -5.2144 3.8374 0
M  V30 308 H -1.2167 -6.0078 1.5747 0
M  V30 309 H -1.0047 -6.9573 -1.7995 0
M  V30 310 H 1.3858 -7.3954 -1.9755 0
M  V30 311 H 2.3178 -7.7458 2.2513 0
M  V30 312 H 3.9058 -7.6200 4.1070 0
M  V30 313 Zn 6.5801 5.4771 6.6790 0 CHG=2
M  V30 314 C 10.5959 4.2709 9.1852 0
M  V30 315 C 9.8050 3.3757 8.4889 0
M  V30 316 C 8.6482 3.8412 7.8575 0
M  V30 317 H 10.0776 2.3336 8.4355 0
M  V30 318 N 8.2847 5.1343 7.9034 0
M  V30 319 C 7.7601 2.9438 7.1701 0
M  V30 320 C 9.0369 5.9788 8.5898 0
M  V30 321 C 10.1992 5.6010 9.2452 0
M  V30 322 H 8.7050 7.0042 8.6361 0
M  V30 323 H 10.7773 6.3301 9.7897 0
M  V30 324 H 11.4986 3.9478 9.6804 0
M  V30 325 N 6.6765 3.3509 6.5968 0
M  V30 326 H 8.0188 1.8887 7.2107 0
M  V30 327 C 3.2423 5.6341 10.2117 0
M  V30 328 C 2.9575 5.8614 8.8742 0
M  V30 329 C 3.9860 5.7491 7.9386 0
M  V30 330 H 1.9608 6.1268 8.5604 0
M  V30 331 N 5.2398 5.4169 8.2958 0
M  V30 332 C 3.7612 5.9731 6.5281 0
M  V30 333 C 5.5050 5.1982 9.5729 0
M  V30 334 C 4.5399 5.2956 10.5682 0
M  V30 335 H 6.5214 4.9326 9.8174 0
M  V30 336 H 4.8061 5.1092 11.5960 0
M  V30 337 H 2.4753 5.7158 10.9658 0
M  V30 338 N 4.7187 5.8971 5.6714 0
M  V30 339 H 2.7474 6.2235 6.2219 0
M  V30 340 C 8.0014 10.0950 7.3254 0
M  V30 341 C 8.5094 9.2505 6.3521 0
M  V30 342 C 7.9256 7.9952 6.1775 0
M  V30 343 H 9.3482 9.5526 5.7446 0
M  V30 344 N 6.8856 7.5823 6.9190 0
M  V30 345 C 8.3888 7.0832 5.1598 0
M  V30 346 C 6.3944 8.4032 7.8333 0
M  V30 347 C 6.9142 9.6670 8.0754 0
M  V30 348 H 5.5486 8.0450 8.3986 0
M  V30 349 H 6.4826 10.3016 8.8323 0
M  V30 350 H 8.4381 11.0678 7.4916 0
M  V30 351 N 7.9578 5.8767 5.1005 0
M  V30 352 H 9.1055 7.4734 4.4404 0
M  V30 353 Zn 6.4109 -7.0955 5.8249 0 CHG=2
M  V30 354 C 3.1323 -10.2154 7.7482 0
M  V30 355 C 2.8035 -8.9338 7.3309 0
M  V30 356 C 3.8098 -8.1186 6.8202 0
M  V30 357 H 1.7880 -8.5785 7.4045 0
M  V30 358 N 5.0823 -8.5360 6.7066 0
M  V30 359 C 3.5629 -6.7512 6.4103 0
M  V30 360 C 5.3908 -9.7540 7.1140 0
M  V30 361 C 4.4510 -10.6308 7.6449 0
M  V30 362 H 6.4231 -10.0538 7.0202 0
M  V30 363 H 4.7551 -11.6144 7.9655 0
M  V30 364 H 2.3841 -10.8798 8.1512 0
M  V30 365 N 4.5186 -6.0325 5.9584 0
M  V30 366 H 2.5559 -6.3557 6.5292 0
M  V30 367 C 7.9703 -5.0468 9.9130 0
M  V30 368 C 8.2473 -4.5743 8.6420 0
M  V30 369 C 7.6532 -5.1994 7.5421 0
M  V30 370 H 8.9212 -3.7446 8.4987 0
M  V30 371 N 6.8058 -6.2339 7.6913 0
M  V30 372 C 7.8717 -4.7292 6.1991 0
M  V30 373 C 6.5343 -6.6698 8.9110 0
M  V30 374 C 7.0911 -6.1134 10.0525 0
M  V30 375 H 5.8411 -7.4924 8.9820 0
M  V30 376 H 6.8450 -6.5055 11.0258 0
M  V30 377 H 8.4243 -4.5947 10.7813 0
M  V30 378 N 7.3456 -5.3147 5.1750 0
M  V30 379 H 8.4537 -3.8180 6.1104 0
M  V30 380 C 10.3086 -10.0412 6.3705 0
M  V30 381 C 9.3405 -10.1781 5.3934 0
M  V30 382 C 8.3296 -9.2163 5.2960 0
M  V30 383 H 9.3627 -11.0158 4.7136 0
M  V30 384 N 8.2593 -8.1668 6.1295 0
M  V30 385 C 7.3227 -9.3242 4.2769 0
M  V30 386 C 9.1980 -8.0413 7.0543 0
M  V30 387 C 10.2400 -8.9417 7.2160 0
M  V30 388 H 9.1352 -7.1868 7.7079 0
M  V30 389 H 10.9779 -8.7901 7.9870 0
M  V30 390 H 11.0995 -10.7683 6.4730 0
M  V30 391 N 6.3732 -8.4651 4.1422 0
M  V30 392 H 7.4092 -10.1919 3.6289 0
M  V30 393 Zn -5.5890 -5.7580 6.3561 0 CHG=2
M  V30 394 C -9.9940 -4.9346 8.1795 0
M  V30 395 C -9.2697 -4.0174 7.4385 0
M  V30 396 C -7.9388 -4.3001 7.1326 0
M  V30 397 H -9.7244 -3.0991 7.1024 0
M  V30 398 N -7.3470 -5.4453 7.5137 0
M  V30 399 C -7.0747 -3.3530 6.4859 0
M  V30 400 C -8.0318 -6.2926 8.2649 0
M  V30 401 C -9.3549 -6.0849 8.6237 0
M  V30 402 H -7.5045 -7.1672 8.6117 0
M  V30 403 H -9.8693 -6.8037 9.2410 0
M  V30 404 H -11.0285 -4.7547 8.4292 0
M  V30 405 N -5.8837 -3.6793 6.1114 0
M  V30 406 H -7.4432 -2.3366 6.3890 0
M  V30 407 C -2.3399 -4.5912 9.7197 0
M  V30 408 C -2.0055 -4.9768 8.4306 0
M  V30 409 C -3.0239 -5.3554 7.5569 0
M  V30 410 H -0.9768 -4.9800 8.1073 0
M  V30 411 N -4.3189 -5.3429 7.9261 0
M  V30 412 C -2.7598 -5.7900 6.2060 0
M  V30 413 C -4.6317 -4.9828 9.1600 0
M  V30 414 C -3.6758 -4.6006 10.0937 0
M  V30 415 H -5.6798 -4.9960 9.4155 0
M  V30 416 H -3.9806 -4.3198 11.0890 0
M  V30 417 H -1.5809 -4.2915 10.4253 0
M  V30 418 N -3.7325 -6.0379 5.3961 0
M  V30 419 H -1.7215 -5.9224 5.9149 0
M  V30 420 C -7.0570 -10.2921 7.1821 0
M  V30 421 C -7.7086 -9.4180 6.3226 0
M  V30 422 C -7.1254 -8.1824 6.0577 0
M  V30 423 H -8.6495 -9.6896 5.8702 0
M  V30 424 N -5.9555 -7.8132 6.6054 0
M  V30 425 C -7.7140 -7.2268 5.1444 0
M  V30 426 C -5.3308 -8.6559 7.4098 0
M  V30 427 C -5.8419 -9.9084 7.7296 0
M  V30 428 H -4.3881 -8.3203 7.8137 0
M  V30 429 H -5.3062 -10.5671 8.3938 0
M  V30 430 H -7.4892 -11.2534 7.4139 0
M  V30 431 N -7.0864 -6.1409 4.9077 0
M  V30 432 H -8.6436 -7.4904 4.6500 0
M  V30 433 Zn -5.9364 6.5003 6.2605 0 CHG=2
M  V30 434 C -3.3750 9.6731 8.9647 0
M  V30 435 C -2.8972 8.4351 8.5759 0
M  V30 436 C -3.6872 7.6321 7.7478 0
M  V30 437 H -1.9300 8.0944 8.9094 0
M  V30 438 N -4.8988 8.0265 7.3205 0
M  V30 439 C -3.2328 6.3361 7.3198 0
M  V30 440 C -5.3430 9.2164 7.6894 0
M  V30 441 C -4.6236 10.0749 8.5083 0
M  V30 442 H -6.3141 9.5129 7.3263 0
M  V30 443 H -5.0363 11.0323 8.7829 0
M  V30 444 H -2.7966 10.3183 9.6076 0
M  V30 445 N -3.9131 5.6030 6.5019 0
M  V30 446 H -2.2855 6.0109 7.7379 0
M  V30 447 C -7.6749 4.0157 10.0521 0
M  V30 448 C -8.0946 3.8319 8.7467 0
M  V30 449 C -7.4412 4.5194 7.7196 0
M  V30 450 H -8.9228 3.1787 8.5218 0
M  V30 451 N -6.4048 5.3391 7.9655 0
M  V30 452 C -7.8201 4.3376 6.3448 0
M  V30 453 C -5.9977 5.4951 9.2157 0
M  V30 454 C -6.5987 4.8609 10.2927 0
M  V30 455 H -5.1563 6.1522 9.3698 0
M  V30 456 H -6.2380 5.0278 11.2945 0
M  V30 457 H -8.1707 3.5123 10.8677 0
M  V30 458 N -7.2081 4.9484 5.3862 0
M  V30 459 H -8.5931 3.5989 6.1588 0
M  V30 460 C -9.9960 9.2461 6.7732 0
M  V30 461 C -9.1097 9.3190 5.7154 0
M  V30 462 C -8.0082 8.4566 5.6871 0
M  V30 463 H -9.2598 10.0370 4.9242 0
M  V30 464 N -7.7917 7.5485 6.6520 0
M  V30 465 C -7.0433 8.5487 4.6272 0
M  V30 466 C -8.6391 7.4982 7.6669 0
M  V30 467 C -9.7515 8.3178 7.7773 0
M  V30 468 H -8.4307 6.7805 8.4437 0
M  V30 469 H -10.4077 8.2364 8.6286 0
M  V30 470 H -10.8529 9.9002 6.8241 0
M  V30 471 N -6.0059 7.7868 4.5571 0
M  V30 472 H -7.2351 9.3349 3.9037 0
M  V30 473 Zn 6.8356 5.9430 -5.5493 0 CHG=2
M  V30 474 C 9.3389 10.1505 -6.1108 0
M  V30 475 C 9.4326 9.3120 -5.0153 0
M  V30 476 C 8.7342 8.1007 -5.0227 0
M  V30 477 H 10.0468 9.5828 -4.1708 0
M  V30 478 N 7.9491 7.7362 -6.0481 0
M  V30 479 C 8.9024 7.1625 -3.9474 0
M  V30 480 C 7.8881 8.5345 -7.1023 0
M  V30 481 C 8.5617 9.7438 -7.1870 0
M  V30 482 H 7.2912 8.2027 -7.9364 0
M  V30 483 H 8.4814 10.3511 -8.0740 0
M  V30 484 H 9.8684 11.0905 -6.1363 0
M  V30 485 N 8.3330 6.0073 -3.9416 0
M  V30 486 H 9.5823 7.4847 -3.1653 0
M  V30 487 C 9.8375 2.6400 -7.5006 0
M  V30 488 C 8.5846 2.3150 -7.0037 0
M  V30 489 C 7.7741 3.3343 -6.5080 0
M  V30 490 H 8.2482 1.2911 -7.0013 0
M  V30 491 N 8.1776 4.6167 -6.4840 0
M  V30 492 C 6.4323 3.0930 -6.0266 0
M  V30 493 C 9.3694 4.9222 -6.9656 0
M  V30 494 C 10.2347 3.9689 -7.4894 0
M  V30 495 H 9.6527 5.9629 -6.9393 0
M  V30 496 H 11.1954 4.2692 -7.8761 0
M  V30 497 H 10.4952 1.8813 -7.8950 0
M  V30 498 N 5.7221 4.0611 -5.5710 0
M  V30 499 H 6.0360 2.0824 -6.0997 0
M  V30 500 C 4.4748 7.7633 -9.3097 0
M  V30 501 C 4.2478 8.1292 -7.9945 0
M  V30 502 C 4.8979 7.4299 -6.9744 0
M  V30 503 H 3.5855 8.9466 -7.7571 0
M  V30 504 N 5.7313 6.4085 -7.2440 0
M  V30 505 C 4.6440 7.7043 -5.5855 0
M  V30 506 C 5.9273 6.0487 -8.5034 0
M  V30 507 C 5.3215 6.6925 -9.5716 0
M  V30 508 H 6.5902 5.2127 -8.6606 0
M  V30 509 H 5.5095 6.3702 -10.5827 0
M  V30 510 H 3.9965 8.2939 -10.1184 0
M  V30 511 N 5.2430 7.0549 -4.6415 0
M  V30 512 H 3.8642 8.4315 -5.3874 0
M  V30 513 Zn 5.6583 -5.8483 -5.9907 0 CHG=2
M  V30 514 C 5.3060 -2.5527 -9.4948 0
M  V30 515 C 5.7018 -2.2460 -8.2018 0
M  V30 516 C 5.7452 -3.2656 -7.2511 0
M  V30 517 H 5.9710 -1.2364 -7.9374 0
M  V30 518 N 5.3997 -4.5304 -7.5526 0
M  V30 519 C 6.1472 -3.0283 -5.8838 0
M  V30 520 C 5.0160 -4.8179 -8.7854 0
M  V30 521 C 4.9570 -3.8621 -9.7929 0
M  V30 522 H 4.7447 -5.8439 -8.9800 0
M  V30 523 H 4.6449 -4.1442 -10.7855 0
M  V30 524 H 5.2665 -1.7919 -10.2586 0
M  V30 525 N 6.1478 -3.9849 -5.0207 0
M  V30 526 H 6.4507 -2.0195 -5.6163 0
M  V30 527 C 10.2387 -7.3029 -6.8032 0
M  V30 528 C 9.3630 -7.9439 -5.9385 0
M  V30 529 C 8.1354 -7.3469 -5.6662 0
M  V30 530 H 9.6264 -8.8880 -5.4878 0
M  V30 531 N 7.7733 -6.1749 -6.2107 0
M  V30 532 C 7.1848 -7.9227 -4.7409 0
M  V30 533 C 8.6210 -5.5590 -7.0156 0
M  V30 534 C 9.8659 -6.0818 -7.3444 0
M  V30 535 H 8.2978 -4.6105 -7.4156 0
M  V30 536 H 10.5266 -5.5510 -8.0107 0
M  V30 537 H 11.1931 -7.7461 -7.0429 0
M  V30 538 N 6.0968 -7.2973 -4.5105 0
M  V30 539 H 7.4597 -8.8390 -4.2269 0
M  V30 540 C 5.1934 -10.2273 -7.9635 0
M  V30 541 C 4.2438 -9.6194 -7.1663 0
M  V30 542 C 4.4095 -8.2754 -6.8183 0
M  V30 543 H 3.3837 -10.1702 -6.8196 0
M  V30 544 N 5.4850 -7.5701 -7.2133 0
M  V30 545 C 3.4080 -7.5464 -6.1010 0
M  V30 546 C 6.3663 -8.1497 -8.0140 0
M  V30 547 C 6.2678 -9.4700 -8.4185 0
M  V30 548 H 7.1809 -7.5337 -8.3622 0
M  V30 549 H 7.0092 -9.8960 -9.0753 0
M  V30 550 H 5.0991 -11.2645 -8.2479 0
M  V30 551 N 3.5900 -6.3114 -5.7497 0
M  V30 552 H 2.4744 -8.0675 -5.9234 0
M  V30 553 Zn -6.8797 -5.9555 -5.2985 0 CHG=2
M  V30 554 C -9.2457 -10.1018 -6.2104 0
M  V30 555 C -9.5152 -9.2648 -5.1427 0
M  V30 556 C -8.7231 -8.1285 -4.9545 0
M  V30 557 H -10.3268 -9.4833 -4.4660 0
M  V30 558 N -7.7129 -7.8226 -5.7843 0
M  V30 559 C -8.9678 -7.2275 -3.8595 0
M  V30 560 C -7.4568 -8.6343 -6.7970 0
M  V30 561 C -8.1887 -9.7836 -7.0536 0
M  V30 562 H -6.6350 -8.3631 -7.4405 0
M  V30 563 H -7.9442 -10.4139 -7.8933 0
M  V30 564 H -9.8430 -10.9840 -6.3838 0
M  V30 565 N -8.2441 -6.1781 -3.6755 0
M  V30 566 H -9.8076 -7.4799 -3.2198 0
M  V30 567 C -10.1448 -2.9340 -7.3555 0
M  V30 568 C -8.8568 -2.5399 -7.0257 0
M  V30 569 C -8.0013 -3.4677 -6.4375 0
M  V30 570 H -8.5253 -1.5333 -7.2226 0
M  V30 571 N -8.3855 -4.7273 -6.1700 0
M  V30 572 C -6.6337 -3.1480 -6.0976 0
M  V30 573 C -9.6127 -5.0977 -6.4904 0
M  V30 574 C -10.5288 -4.2390 -7.0869 0
M  V30 575 H -9.8878 -6.1178 -6.2721 0
M  V30 576 H -11.5163 -4.5932 -7.3353 0
M  V30 577 H -10.8375 -2.2471 -7.8162 0
M  V30 578 N -5.9272 -3.9765 -5.4229 0
M  V30 579 H -6.2361 -2.1918 -6.4270 0
M  V30 580 C -4.1317 -6.2714 -9.2916 0
M  V30 581 C -3.7321 -6.6685 -8.0291 0
M  V30 582 C -4.6236 -6.5374 -6.9614 0
M  V30 583 H -2.7527 -7.0890 -7.8689 0
M  V30 584 N -5.8488 -6.0065 -7.1263 0
M  V30 585 C -4.2821 -6.9615 -5.6353 0
M  V30 586 C -6.2264 -5.6349 -8.3408 0
M  V30 587 C -5.4089 -5.7484 -9.4532 0
M  V30 588 H -7.2232 -5.2353 -8.4290 0
M  V30 589 H -5.7680 -5.4411 -10.4219 0
M  V30 590 H -3.4713 -6.3690 -10.1391 0
M  V30 591 N -5.0864 -6.8056 -4.6318 0
M  V30 592 H -3.3009 -7.4060 -5.5067 0
M  V30 593 Zn -5.7693 6.0256 -5.7660 0 CHG=2
M  V30 594 C -10.0911 8.2237 -6.0236 0
M  V30 595 C -9.0562 8.6400 -5.1984 0
M  V30 596 C -7.9227 7.8389 -5.0910 0
M  V30 597 H -9.1274 9.5679 -4.6528 0
M  V30 598 N -7.8010 6.6804 -5.7576 0
M  V30 599 C -6.8261 8.1682 -4.2077 0
M  V30 600 C -8.7990 6.2786 -6.5247 0
M  V30 601 C -9.9659 7.0148 -6.6916 0
M  V30 602 H -8.6673 5.3327 -7.0270 0
M  V30 603 H -10.7558 6.6542 -7.3305 0
M  V30 604 H -10.9786 8.8273 -6.1364 0
M  V30 605 N -5.8296 7.3730 -4.1329 0
M  V30 606 H -6.9266 9.0501 -3.5815 0
M  V30 607 C -4.7903 10.3312 -7.8218 0
M  V30 608 C -3.8871 9.5872 -7.0863 0
M  V30 609 C -4.2519 8.3080 -6.6593 0
M  V30 610 H -2.9139 9.9860 -6.8477 0
M  V30 611 N -5.4628 7.7891 -6.9264 0
M  V30 612 C -3.3273 7.4415 -5.9877 0
M  V30 613 C -6.3039 8.4921 -7.6685 0
M  V30 614 C -6.0195 9.7645 -8.1375 0
M  V30 615 H -7.2440 8.0221 -7.9129 0
M  V30 616 H -6.7401 10.2970 -8.7370 0
M  V30 617 H -4.5457 11.3260 -8.1614 0
M  V30 618 N -3.6693 6.2526 -5.6152 0
M  V30 619 H -2.3097 7.8044 -5.8897 0
M  V30 620 C -6.2452 2.9706 -9.4748 0
M  V30 621 C -6.5240 2.6289 -8.1613 0
M  V30 622 C -6.3053 3.5730 -7.1572 0
M  V30 623 H -6.9095 1.6526 -7.9169 0
M  V30 624 N -5.8239 4.8002 -7.4313 0
M  V30 625 C -6.5807 3.2925 -5.7682 0
M  V30 626 C -5.5511 5.1186 -8.6864 0
M  V30 627 C -5.7464 4.2380 -9.7428 0
M  V30 628 H -5.1592 6.1086 -8.8599 0
M  V30 629 H -5.5131 4.5435 -10.7498 0
M  V30 630 H -6.4083 2.2695 -10.2783 0
M  V30 631 N -6.3869 4.1859 -4.8576 0
M  V30 632 H -6.9801 2.3112 -5.5265 0
M  V30 END ATOM
M  V30 BEGIN BOND
M  V30 1 2 1 2
M  V30 2 1 2 3
M  V30 3 2 3 4
M  V30 4 1 4 5
M  V30 5 1 5 6
M  V30 6 2 6 7
M  V30 7 1 7 8
M  V30 8 2 8 9
M  V30 9 1 9 10
M  V30 10 2 10 11
M  V30 11 1 5 12
M  V30 12 2 12 13
M  V30 13 1 13 14
M  V30 14 2 14 15
M  V30 15 1 15 16
M  V30 16 1 16 17
M  V30 17 2 17 18
M  V30 18 1 18 19
M  V30 19 2 19 20
M  V30 20 1 20 21
M  V30 21 2 21 22
M  V30 22 1 16 23
M  V30 23 2 23 24
M  V30 24 1 24 25
M  V30 25 2 25 26
M  V30 26 1 26 27
M  V30 27 2 27 28
M  V30 28 1 15 29
M  V30 29 2 29 30
M  V30 30 1 4 31
M  V30 31 2 31 32
M  V30 32 1 32 1
M  V30 33 1 11 6
M  V30 34 1 30 12
M  V30 35 1 22 17
M  V30 36 1 28 23
M  V30 37 1 2 33
M  V30 38 1 3 34
M  V30 39 1 7 35
M  V30 40 1 8 36
M  V30 41 1 10 37
M  V30 42 1 11 38
M  V30 43 1 13 39
M  V30 44 1 14 40
M  V30 45 1 18 41
M  V30 46 1 19 42
M  V30 47 1 21 43
M  V30 48 1 22 44
M  V30 49 1 24 45
M  V30 50 1 25 46
M  V30 51 1 27 47
M  V30 52 1 28 48
M  V30 53 1 29 49
M  V30 54 1 30 50
M  V30 55 1 31 51
M  V30 56 1 32 52
M  V30 57 2 53 54
M  V30 58 1 54 55
M  V30 59 2 55 56
M  V30 60 1 56 57
M  V30 61 1 57 58
M  V30 62 2 58 59
M  V30 63 1 59 60
M  V30 64 2 60 61
M  V30 65 1 61 62
M  V30 66 2 62 63
M  V30 67 1 57 64
M  V30 68 2 64 65
M  V30 69 1 65 66
M  V30 70 2 66 67
M  V30 71 1 67 68
M  V30 72 1 68 69
M  V30 73 2 69 70
M  V30 74 1 70 71
M  V30 75 2 71 72
M  V30 76 1 72 73
M  V30 77 2 73 74
M  V30 78 1 68 75
M  V30 79 2 75 76
M  V30 80 1 76 77
M  V30 81 2 77 78
M  V30 82 1 78 79
M  V30 83 2 79 80
M  V30 84 1 67 81
M  V30 85 2 81 82
M  V30 86 1 56 83
M  V30 87 2 83 84
M  V30 88 1 84 53
M  V30 89 1 63 58
M  V30 90 1 82 64
M  V30 91 1 74 69
M  V30 92 1 80 75
M  V30 93 1 54 85
M  V30 94 1 55 86
M  V30 95 1 59 87
M  V30 96 1 60 88
M  V30 97 1 62 89
M  V30 98 1 63 90
M  V30 99 1 65 91
M  V30 100 1 66 92
M  V30 101 1 70 93
M  V30 102 1 71 94
M  V30 103 1 73 95
M  V30 104 1 74 96
M  V30 105 1 76 97
M  V30 106 1 77 98
M  V30 107 1 79 99
M  V30 108 1 80 100
M  V30 109 1 81 101
M  V30 110 1 82 102
M  V30 111 1 83 103
M  V30 112 1 84 104
M  V30 113 2 105 106
M  V30 114 1 106 107
M  V30 115 2 107 108
M  V30 116 1 108 109
M  V30 117 1 109 110
M  V30 118 2 110 111
M  V30 119 1 111 112
M  V30 120 2 112 113
M  V30 121 1 113 114
M  V30 122 2 114 115
M  V30 123 1 109 116
M  V30 124 2 116 117
M  V30 125 1 117 118
M  V30 126 2 118 119
M  V30 127 1 119 120
M  V30 128 1 120 121
M  V30 129 2 121 122
M  V30 130 1 122 123
M  V30 131 2 123 124
M  V30 132 1 124 125
M  V30 133 2 125 126
M  V30 134 1 120 127
M  V30 135 2 127 128
M  V30 136 1 128 129
M  V30 137 2 129 130
M  V30 138 1 130 131
M  V30 139 2 131 132
M  V30 140 1 119 133
M  V30 141 2 133 134
M  V30 142 1 108 135
M  V30 143 2 135 136
M  V30 144 1 136 105
M  V30 145 1 115 110
M  V30 146 1 134 116
M  V30 147 1 126 121
M  V30 148 1 132 127
M  V30 149 1 106 137
M  V30 150 1 107 138
M  V30 151 1 111 139
M  V30 152 1 112 140
M  V30 153 1 114 141
M  V30 154 1 115 142
M  V30 155 1 117 143
M  V30 156 1 118 144
M  V30 157 1 122 145
M  V30 158 1 123 146
M  V30 159 1 125 147
M  V30 160 1 126 148
M  V30 161 1 128 149
M  V30 162 1 129 150
M  V30 163 1 131 151
M  V30 164 1 132 152
M  V30 165 1 133 153
M  V30 166 1 134 154
M  V30 167 1 135 155
M  V30 168 1 136 156
M  V30 169 2 157 158
M  V30 170 1 158 159
M  V30 171 2 159 160
M  V30 172 1 160 161
M  V30 173 1 161 162
M  V30 174 2 162 163
M  V30 175 1 163 164
M  V30 176 2 164 165
M  V30 177 1 165 166
M  V30 178 2 166 167
M  V30 179 1 161 168
M  V30 180 2 168 169
M  V30 181 1 169 170
M  V30 182 2 170 171
M  V30 183 1 171 172
M  V30 184 1 172 173
M  V30 185 2 173 174
M  V30 186 1 174 175
M  V30 187 2 175 176
M  V30 188 1 176 177
M  V30 189 2 177 178
M  V30 190 1 172 179
M  V30 191 2 179 180
M  V30 192 1 180 181
M  V30 193 2 181 182
M  V30 194 1 182 183
M  V30 195 2 183 184
M  V30 196 1 171 185
M  V30 197 2 185 186
M  V30 198 1 160 187
M  V30 199 2 187 188
M  V30 200 1 188 157
M  V30 201 1 167 162
M  V30 202 1 186 168
M  V30 203 1 178 173
M  V30 204 1 184 179
M  V30 205 1 158 189
M  V30 206 1 159 190
M  V30 207 1 163 191
M  V30 208 1 164 192
M  V30 209 1 166 193
M  V30 210 1 167 194
M  V30 211 1 169 195
M  V30 212 1 170 196
M  V30 213 1 174 197
M  V30 214 1 175 198
M  V30 215 1 177 199
M  V30 216 1 178 200
M  V30 217 1 180 201
M  V30 218 1 181 202
M  V30 219 1 183 203
M  V30 220 1 184 204
M  V30 221 1 185 205
M  V30 222 1 186 206
M  V30 223 1 187 207
M  V30 224 1 188 208
M  V30 225 2 209 210
M  V30 226 1 210 211
M  V30 227 2 211 212
M  V30 228 1 212 213
M  V30 229 1 213 214
M  V30 230 2 214 215
M  V30 231 1 215 216
M  V30 232 2 216 217
M  V30 233 1 217 218
M  V30 234 2 218 219
M  V30 235 1 213 220
M  V30 236 2 220 221
M  V30 237 1 221 222
M  V30 238 2 222 223
M  V30 239 1 223 224
M  V30 240 1 224 225
M  V30 241 2 225 226
M  V30 242 1 226 227
M  V30 243 2 227 228
M  V30 244 1 228 229
M  V30 245 2 229 230
M  V30 246 1 224 231
M  V30 247 2 231 232
M  V30 248 1 232 233
M  V30 249 2 233 234
M  V30 250 1 234 235
M  V30 251 2 235 236
M  V30 252 1 223 237
M  V30 253 2 237 238
M  V30 254 1 212 239
M  V30 255 2 239 240
M  V30 256 1 240 209
M  V30 257 1 219 214
M  V30 258 1 238 220
M  V30 259 1 230 225
M  V30 260 1 236 231
M  V30 261 1 210 241
M  V30 262 1 211 242
M  V30 263 1 215 243
M  V30 264 1 216 244
M  V30 265 1 218 245
M  V30 266 1 219 246
M  V30 267 1 221 247
M  V30 268 1 222 248
M  V30 269 1 226 249
M  V30 270 1 227 250
M  V30 271 1 229 251
M  V30 272 1 230 252
M  V30 273 1 232 253
M  V30 274 1 233 254
M  V30 275 1 235 255
M  V30 276 1 236 256
M  V30 277 1 237 257
M  V30 278 1 238 258
M  V30 279 1 239 259
M  V30 280 1 240 260
M  V30 281 2 261 262
M  V30 282 1 262 263
M  V30 283 2 263 264
M  V30 284 1 264 265
M  V30 285 1 265 266
M  V30 286 2 266 267
M  V30 287 1 267 268
M  V30 288 2 268 269
M  V30 289 1 269 270
M  V30 290 2 270 271
M  V30 291 1 265 272
M  V30 292 2 272 273
M  V30 293 1 273 274
M  V30 294 2 274 275
M  V30 295 1 275 276
M  V30 296 1 276 277
M  V30 297 2 277 278
M  V30 298 1 278 279
M  V30 299 2 279 280
M  V30 300 1 280 281
M  V30 301 2 281 282
M  V30 302 1 276 283
M  V30 303 2 283 284
M  V30 304 1 284 285
M  V30 305 2 285 286
M  V30 306 1 286 287
M  V30 307 2 287 288
M  V30 308 1 275 289
M  V30 309 2 289 290
M  V30 310 1 264 291
M  V30 311 2 291 292
M  V30 312 1 292 261
M  V30 313 1 271 266
M  V30 314 1 290 272
M  V30 315 1 282 277
M  V30 316 1 288 283
M  V30 317 1 262 293
M  V30 318 1 263 294
M  V30 319 1 267 295
M  V30 320 1 268 296
M  V30 321 1 270 297
M  V30 322 1 271 298
M  V30 323 1 273 299
M  V30 324 1 274 300
M  V30 325 1 278 301
M  V30 326 1 279 302
M  V30 327 1 281 303
M  V30 328 1 282 304
M  V30 329 1 284 305
M  V30 330 1 285 306
M  V30 331 1 287 307
M  V30 332 1 288 308
M  V30 333 1 289 309
M  V30 334 1 290 310
M  V30 335 1 291 311
M  V30 336 1 292 312
M  V30 337 1 314 324
M  V30 338 2 314 321
M  V30 339 1 315 314
M  V30 340 2 316 315
M  V30 341 1 316 318
M  V30 342 1 317 315
M  V30 343 2 318 320
M  V30 344 1 319 316
M  V30 345 1 320 321
M  V30 346 1 320 322
M  V30 347 1 321 323
M  V30 348 2 325 319
M  V30 349 1 326 319
M  V30 350 1 327 337
M  V30 351 2 327 334
M  V30 352 1 328 327
M  V30 353 2 329 328
M  V30 354 1 329 331
M  V30 355 1 330 328
M  V30 356 2 331 333
M  V30 357 1 332 329
M  V30 358 1 333 334
M  V30 359 1 333 335
M  V30 360 1 334 336
M  V30 361 2 338 332
M  V30 362 1 339 332
M  V30 363 1 340 350
M  V30 364 2 340 347
M  V30 365 1 341 340
M  V30 366 2 342 341
M  V30 367 1 342 344
M  V30 368 1 343 341
M  V30 369 2 344 346
M  V30 370 1 345 342
M  V30 371 1 346 347
M  V30 372 1 346 348
M  V30 373 1 347 349
M  V30 374 2 351 345
M  V30 375 1 352 345
M  V30 376 9 325 313
M  V30 377 9 318 313
M  V30 378 9 338 313
M  V30 379 9 331 313
M  V30 380 9 351 313
M  V30 381 9 344 313
M  V30 382 1 354 364
M  V30 383 2 354 361
M  V30 384 1 355 354
M  V30 385 2 356 355
M  V30 386 1 356 358
M  V30 387 1 357 355
M  V30 388 2 358 360
M  V30 389 1 359 356
M  V30 390 1 360 361
M  V30 391 1 360 362
M  V30 392 1 361 363
M  V30 393 2 365 359
M  V30 394 1 366 359
M  V30 395 1 367 377
M  V30 396 2 367 374
M  V30 397 1 368 367
M  V30 398 2 369 368
M  V30 399 1 369 371
M  V30 400 1 370 368
M  V30 401 2 371 373
M  V30 402 1 372 369
M  V30 403 1 373 374
M  V30 404 1 373 375
M  V30 405 1 374 376
M  V30 406 2 378 372
M  V30 407 1 379 372
M  V30 408 1 380 390
M  V30 409 2 380 387
M  V30 410 1 381 380
M  V30 411 2 382 381
M  V30 412 1 382 384
M  V30 413 1 383 381
M  V30 414 2 384 386
M  V30 415 1 385 382
M  V30 416 1 386 387
M  V30 417 1 386 388
M  V30 418 1 387 389
M  V30 419 2 391 385
M  V30 420 1 392 385
M  V30 421 9 365 353
M  V30 422 9 358 353
M  V30 423 9 378 353
M  V30 424 9 371 353
M  V30 425 9 391 353
M  V30 426 9 384 353
M  V30 427 1 394 404
M  V30 428 2 394 401
M  V30 429 1 395 394
M  V30 430 2 396 395
M  V30 431 1 396 398
M  V30 432 1 397 395
M  V30 433 2 398 400
M  V30 434 1 399 396
M  V30 435 1 400 401
M  V30 436 1 400 402
M  V30 437 1 401 403
M  V30 438 2 405 399
M  V30 439 1 406 399
M  V30 440 1 407 417
M  V30 441 2 407 414
M  V30 442 1 408 407
M  V30 443 2 409 408
M  V30 444 1 409 411
M  V30 445 1 410 408
M  V30 446 2 411 413
M  V30 447 1 412 409
M  V30 448 1 413 414
M  V30 449 1 413 415
M  V30 450 1 414 416
M  V30 451 2 418 412
M  V30 452 1 419 412
M  V30 453 1 420 430
M  V30 454 2 420 427
M  V30 455 1 421 420
M  V30 456 2 422 421
M  V30 457 1 422 424
M  V30 458 1 423 421
M  V30 459 2 424 426
M  V30 460 1 425 422
M  V30 461 1 426 427
M  V30 462 1 426 428
M  V30 463 1 427 429
M  V30 464 2 431 425
M  V30 465 1 432 425
M  V30 466 9 405 393
M  V30 467 9 398 393
M  V30 468 9 418 393
M  V30 469 9 411 393
M  V30 470 9 431 393
M  V30 471 9 424 393
M  V30 472 1 434 444
M  V30 473 2 434 441
M  V30 474 1 435 434
M  V30 475 2 436 435
M  V30 476 1 436 438
M  V30 477 1 437 435
M  V30 478 2 438 440
M  V30 479 1 439 436
M  V30 480 1 440 441
M  V30 481 1 440 442
M  V30 482 1 441 443
M  V30 483 2 445 439
M  V30 484 1 446 439
M  V30 485 1 447 457
M  V30 486 2 447 454
M  V30 487 1 448 447
M  V30 488 2 449 448
M  V30 489 1 449 451
M  V30 490 1 450 448
M  V30 491 2 451 453
M  V30 492 1 452 449
M  V30 493 1 453 454
M  V30 494 1 453 455
M  V30 495 1 454 456
M  V30 496 2 458 452
M  V30 497 1 459 452
M  V30 498 1 460 470
M  V30 499 2 460 467
M  V30 500 1 461 460
M  V30 501 2 462 461
M  V30 502 1 462 464
M  V30 503 1 463 461
M  V30 504 2 464 466
M  V30 505 1 465 462
M  V30 506 1 466 467
M  V30 507 1 466 468
M  V30 508 1 467 469
M  V30 509 2 471 465
M  V30 510 1 472 465
M  V30 511 9 445 433
M  V30 512 9 438 433
M  V30 513 9 458 433
M  V30 514 9 451 433
M  V30 515 9 471 433
M  V30 516 9 464 433
M  V30 517 1 474 484
M  V30 518 2 474 481
M  V30 519 1 475 474
M  V30 520 2 476 475
M  V30 521 1 476 478
M  V30 522 1 477 475
M  V30 523 2 478 480
M  V30 524 1 479 476
M  V30 525 1 480 481
M  V30 526 1 480 482
M  V30 527 1 481 483
M  V30 528 2 485 479
M  V30 529 1 486 479
M  V30 530 1 487 497
M  V30 531 2 487 494
M  V30 532 1 488 487
M  V30 533 2 489 488
M  V30 534 1 489 491
M  V30 535 1 490 488
M  V30 536 2 491 493
M  V30 537 1 492 489
M  V30 538 1 493 494
M  V30 539 1 493 495
M  V30 540 1 494 496
M  V30 541 2 498 492
M  V30 542 1 499 492
M  V30 543 1 500 510
M  V30 544 2 500 507
M  V30 545 1 501 500
M  V30 546 2 502 501
M  V30 547 1 502 504
M  V30 548 1 503 501
M  V30 549 2 504 506
M  V30 550 1 505 502
M  V30 551 1 506 507
M  V30 552 1 506 508
M  V30 553 1 507 509
M  V30 554 2 511 505
M  V30 555 1 512 505
M  V30 556 9 485 473
M  V30 557 9 478 473
M  V30 558 9 511 473
M  V30 559 9 504 473
M  V30 560 9 498 473
M  V30 561 9 491 473
M  V30 562 1 514 524
M  V30 563 2 514 521
M  V30 564 1 515 514
M  V30 565 2 516 515
M  V30 566 1 516 518
M  V30 567 1 517 515
M  V30 568 2 518 520
M  V30 569 1 519 516
M  V30 570 1 520 521
M  V30 571 1 520 522
M  V30 572 1 521 523
M  V30 573 2 525 519
M  V30 574 1 526 519
M  V30 575 1 527 537
M  V30 576 2 527 534
M  V30 577 1 528 527
M  V30 578 2 529 528
M  V30 579 1 529 531
M  V30 580 1 530 528
M  V30 581 2 531 533
M  V30 582 1 532 529
M  V30 583 1 533 534
M  V30 584 1 533 535
M  V30 585 1 534 536
M  V30 586 2 538 532
M  V30 587 1 539 532
M  V30 588 1 540 550
M  V30 589 2 540 547
M  V30 590 1 541 540
M  V30 591 2 542 541
M  V30 592 1 542 544
M  V30 593 1 543 541
M  V30 594 2 544 546
M  V30 595 1 545 542
M  V30 596 1 546 547
M  V30 597 1 546 548
M  V30 598 1 547 549
M  V30 599 2 551 545
M  V30 600 1 552 545
M  V30 601 9 525 513
M  V30 602 9 518 513
M  V30 603 9 551 513
M  V30 604 9 544 513
M  V30 605 9 538 513
M  V30 606 9 531 513
M  V30 607 1 554 564
M  V30 608 2 554 561
M  V30 609 1 555 554
M  V30 610 2 556 555
M  V30 611 1 556 558
M  V30 612 1 557 555
M  V30 613 2 558 560
M  V30 614 1 559 556
M  V30 615 1 560 561
M  V30 616 1 560 562
M  V30 617 1 561 563
M  V30 618 2 565 559
M  V30 619 1 566 559
M  V30 620 1 567 577
M  V30 621 2 567 574
M  V30 622 1 568 567
M  V30 623 2 569 568
M  V30 624 1 569 571
M  V30 625 1 570 568
M  V30 626 2 571 573
M  V30 627 1 572 569
M  V30 628 1 573 574
M  V30 629 1 573 575
M  V30 630 1 574 576
M  V30 631 2 578 572
M  V30 632 1 579 572
M  V30 633 1 580 590
M  V30 634 2 580 587
M  V30 635 1 581 580
M  V30 636 2 582 581
M  V30 637 1 582 584
M  V30 638 1 583 581
M  V30 639 2 584 586
M  V30 640 1 585 582
M  V30 641 1 586 587
M  V30 642 1 586 588
M  V30 643 1 587 589
M  V30 644 2 591 585
M  V30 645 1 592 585
M  V30 646 9 565 553
M  V30 647 9 558 553
M  V30 648 9 591 553
M  V30 649 9 584 553
M  V30 650 9 578 553
M  V30 651 9 571 553
M  V30 652 1 594 604
M  V30 653 2 594 601
M  V30 654 1 595 594
M  V30 655 2 596 595
M  V30 656 1 596 598
M  V30 657 1 597 595
M  V30 658 2 598 600
M  V30 659 1 599 596
M  V30 660 1 600 601
M  V30 661 1 600 602
M  V30 662 1 601 603
M  V30 663 2 605 599
M  V30 664 1 606 599
M  V30 665 1 607 617
M  V30 666 2 607 614
M  V30 667 1 608 607
M  V30 668 2 609 608
M  V30 669 1 609 611
M  V30 670 1 610 608
M  V30 671 2 611 613
M  V30 672 1 612 609
M  V30 673 1 613 614
M  V30 674 1 613 615
M  V30 675 1 614 616
M  V30 676 2 618 612
M  V30 677 1 619 612
M  V30 678 1 620 630
M  V30 679 2 620 627
M  V30 680 1 621 620
M  V30 681 2 622 621
M  V30 682 1 622 624
M  V30 683 1 623 621
M  V30 684 2 624 626
M  V30 685 1 625 622
M  V30 686 1 626 627
M  V30 687 1 626 628
M  V30 688 1 627 629
M  V30 689 2 631 625
M  V30 690 1 632 625
M  V30 691 9 605 593
M  V30 692 9 598 593
M  V30 693 9 631 593
M  V30 694 9 624 593
M  V30 695 9 618 593
M  V30 696 9 611 593
M  V30 697 1 1 325
M  V30 698 1 9 365
M  V30 699 1 20 405
M  V30 700 1 26 445
M  V30 701 1 61 485
M  V30 702 1 72 525
M  V30 703 1 78 378
M  V30 704 1 53 351
M  V30 705 1 105 511
M  V30 706 1 113 338
M  V30 707 1 124 471
M  V30 708 1 130 605
M  V30 709 1 165 458
M  V30 710 1 176 431
M  V30 711 1 182 565
M  V30 712 1 157 631
M  V30 713 1 217 551
M  V30 714 1 228 498
M  V30 715 1 234 618
M  V30 716 1 209 578
M  V30 717 1 261 391
M  V30 718 1 269 538
M  V30 719 1 280 591
M  V30 720 1 286 418
M  V30 END BOND
M  V30 END CTAB
M  END

$$$$
