
     RDKit          3D

  0  0  0  0  0  0  0  0  0  0999 V3000
M  V30 BEGIN CTAB
M  V30 COUNTS 632 720 0 0 0
M  V30 BEGIN ATOM
M  V30 1 C -1.3611 5.3346 6.8726 0
M  V30 2 C -0.0726 5.8012 6.5626 0
M  V30 3 C 0.9567 4.9254 6.3282 0
M  V30 4 C 0.7599 3.5362 6.4369 0
M  V30 5 N 1.7561 2.6597 6.1361 0
M  V30 6 C 3.1082 3.0510 5.9444 0
M  V30 7 C 3.8657 3.5728 6.9871 0
M  V30 8 C 5.1891 3.9134 6.7741 0
M  V30 9 C 5.7367 3.7914 5.5007 0
M  V30 10 C 4.9839 3.2550 4.4594 0
M  V30 11 C 3.6813 2.8589 4.6894 0
M  V30 12 C 1.5249 1.2552 6.1501 0
M  V30 13 C 2.0909 0.4790 7.1556 0
M  V30 14 C 1.8427 -0.8779 7.1982 0
M  V30 15 C 1.0473 -1.4704 6.2180 0
M  V30 16 N 0.7970 -2.8566 6.2463 0
M  V30 17 C 1.7983 -3.7448 6.5933 0
M  V30 18 C 3.1416 -3.4487 6.3148 0
M  V30 19 C 4.1232 -4.3664 6.5926 0
M  V30 20 C 3.8250 -5.6088 7.1722 0
M  V30 21 C 2.4833 -5.8837 7.4891 0
M  V30 22 C 1.4937 -4.9764 7.1937 0
M  V30 23 C -0.4721 -3.3133 5.8795 0
M  V30 24 C -0.5977 -4.4355 5.0534 0
M  V30 25 C -1.8392 -4.8646 4.6470 0
M  V30 26 C -2.9959 -4.1844 5.0407 0
M  V30 27 C -2.8686 -3.0669 5.8788 0
M  V30 28 C -1.6259 -2.6361 6.2876 0
M  V30 29 C 0.5051 -0.6928 5.1935 0
M  V30 30 C 0.7376 0.6678 5.1642 0
M  V30 31 C -0.5212 3.0714 6.7928 0
M  V30 32 C -1.5540 3.9498 6.9848 0
M  V30 33 H 0.0983 6.8579 6.4398 0
M  V30 34 H 1.9249 5.3070 6.0460 0
M  V30 35 H 3.4283 3.7043 7.9648 0
M  V30 36 H 5.7884 4.3060 7.5807 0
M  V30 37 H 5.4414 3.1420 3.4905 0
M  V30 38 H 3.0972 2.4228 3.8951 0
M  V30 39 H 2.6973 0.9409 7.9178 0
M  V30 40 H 2.2472 -1.4738 8.0010 0
M  V30 41 H 3.4035 -2.5134 5.8478 0
M  V30 42 H 5.1502 -4.1466 6.3550 0
M  V30 43 H 2.2054 -6.8295 7.9246 0
M  V30 44 H 0.4705 -5.2166 7.4369 0
M  V30 45 H 0.2885 -4.9470 4.7160 0
M  V30 46 H -1.9203 -5.7124 3.9882 0
M  V30 47 H -3.7498 -2.5797 6.2632 0
M  V30 48 H -1.5395 -1.7901 6.9505 0
M  V30 49 H -0.0850 -1.1602 4.4221 0
M  V30 50 H 0.3211 1.2789 4.3801 0
M  V30 51 H -0.6874 2.0172 6.9381 0
M  V30 52 H -2.5251 3.5917 7.2825 0
M  V30 53 C 7.2793 5.3630 1.6226 0
M  V30 54 C 6.5563 5.5886 0.4413 0
M  V30 55 C 6.4025 4.5851 -0.4847 0
M  V30 56 C 6.9979 3.3290 -0.2871 0
M  V30 57 N 6.8947 2.3486 -1.2651 0
M  V30 58 C 6.8973 2.6888 -2.6162 0
M  V30 59 C 7.6112 3.8016 -3.0821 0
M  V30 60 C 7.5970 4.1324 -4.4181 0
M  V30 61 C 6.9061 3.3379 -5.3393 0
M  V30 62 C 6.2014 2.2158 -4.8779 0
M  V30 63 C 6.1809 1.9096 -3.5366 0
M  V30 64 C 6.9001 0.9838 -0.9114 0
M  V30 65 C 7.6131 0.0619 -1.6820 0
M  V30 66 C 7.6124 -1.2737 -1.3437 0
M  V30 67 C 6.9167 -1.7080 -0.2142 0
M  V30 68 N 6.9354 -3.0527 0.1643 0
M  V30 69 C 7.1081 -4.0741 -0.7691 0
M  V30 70 C 6.2787 -4.1701 -1.8931 0
M  V30 71 C 6.4904 -5.1605 -2.8269 0
M  V30 72 C 7.5650 -6.0491 -2.6908 0
M  V30 73 C 8.3734 -5.9667 -1.5472 0
M  V30 74 C 8.1296 -5.0134 -0.5873 0
M  V30 75 C 7.0240 -3.3807 1.5273 0
M  V30 76 C 6.0720 -4.2472 2.0679 0
M  V30 77 C 6.1310 -4.5846 3.3996 0
M  V30 78 C 7.1776 -4.1268 4.2073 0
M  V30 79 C 8.1306 -3.2571 3.6575 0
M  V30 80 C 8.0326 -2.8611 2.3414 0
M  V30 81 C 6.1993 -0.7888 0.5550 0
M  V30 82 C 6.1826 0.5434 0.2027 0
M  V30 83 C 7.6647 3.0864 0.9225 0
M  V30 84 C 7.7870 4.0813 1.8657 0
M  V30 85 H 6.0716 6.5391 0.2861 0
M  V30 86 H 5.8134 4.7676 -1.3688 0
M  V30 87 H 8.1974 4.3934 -2.3979 0
M  V30 88 H 8.1634 4.9755 -4.7756 0
M  V30 89 H 5.6190 1.6305 -5.5717 0
M  V30 90 H 5.5952 1.0745 -3.1861 0
M  V30 91 H 8.1932 0.4012 -2.5245 0
M  V30 92 H 8.1849 -1.9804 -1.9216 0
M  V30 93 H 5.4561 -3.4805 -1.9991 0
M  V30 94 H 5.8150 -5.3028 -3.6565 0
M  V30 95 H 9.2381 -6.6038 -1.4500 0
M  V30 96 H 8.7693 -4.9471 0.2786 0
M  V30 97 H 5.2762 -4.6201 1.4441 0
M  V30 98 H 5.3508 -5.1740 3.8482 0
M  V30 99 H 8.9794 -2.9402 4.2418 0
M  V30 100 H 8.7666 -2.1902 1.9237 0
M  V30 101 H 5.6461 -1.1306 1.4140 0
M  V30 102 H 5.6023 1.2464 0.7766 0
M  V30 103 H 8.1217 2.1271 1.1029 0
M  V30 104 H 8.3361 3.9044 2.7750 0
M  V30 105 C -2.1782 7.3771 -5.8567 0
M  V30 106 C -0.9285 7.0242 -6.3847 0
M  V30 107 C 0.2050 7.0798 -5.6111 0
M  V30 108 C 0.1442 7.5230 -4.2801 0
M  V30 109 N 1.2528 7.4398 -3.4689 0
M  V30 110 C 2.5528 7.3646 -4.0140 0
M  V30 111 C 3.0260 8.3337 -4.8963 0
M  V30 112 C 4.3033 8.2333 -5.4152 0
M  V30 113 C 5.0905 7.1262 -5.1080 0
M  V30 114 C 4.6229 6.1638 -4.2131 0
M  V30 115 C 3.3737 6.2960 -3.6471 0
M  V30 116 C 1.1507 7.3458 -2.0689 0
M  V30 117 C 2.1092 7.9721 -1.2698 0
M  V30 118 C 2.0498 7.8648 0.1026 0
M  V30 119 C 1.0249 7.1307 0.7010 0
M  V30 120 N 0.9396 7.0157 2.0936 0
M  V30 121 C 2.0599 6.9562 2.8965 0
M  V30 122 C 3.2069 6.2597 2.4873 0
M  V30 123 C 4.3092 6.2067 3.3042 0
M  V30 124 C 4.3324 6.8609 4.5453 0
M  V30 125 C 3.1826 7.5662 4.9431 0
M  V30 126 C 2.0649 7.5922 4.1463 0
M  V30 127 C -0.3379 7.0181 2.6957 0
M  V30 128 C -0.7499 5.8798 3.3899 0
M  V30 129 C -1.9970 5.8461 3.9740 0
M  V30 130 C -2.8431 6.9595 3.9118 0
M  V30 131 C -2.4205 8.0993 3.2160 0
M  V30 132 C -1.1898 8.1174 2.5918 0
M  V30 133 C 0.0730 6.4945 -0.0967 0
M  V30 134 C 0.1394 6.5926 -1.4696 0
M  V30 135 C -1.0918 7.9724 -3.7861 0
M  V30 136 C -2.2284 7.8820 -4.5513 0
M  V30 137 H -0.8696 6.6236 -7.3833 0
M  V30 138 H 1.1441 6.7438 -6.0207 0
M  V30 139 H 2.4014 9.1715 -5.1648 0
M  V30 140 H 4.6767 8.9864 -6.0922 0
M  V30 141 H 5.2676 5.3373 -3.9631 0
M  V30 142 H 3.0103 5.5620 -2.9454 0
M  V30 143 H 2.8839 8.5642 -1.7294 0
M  V30 144 H 2.7753 8.3752 0.7153 0
M  V30 145 H 3.2068 5.7452 1.5398 0
M  V30 146 H 5.1695 5.6238 3.0182 0
M  V30 147 H 3.1798 8.1476 5.8512 0
M  V30 148 H 1.2001 8.1570 4.4570 0
M  V30 149 H -0.0959 5.0249 3.4473 0
M  V30 150 H -2.3484 4.9488 4.4571 0
M  V30 151 H -3.0292 8.9897 3.2018 0
M  V30 152 H -0.8692 8.9974 2.0562 0
M  V30 153 H -0.6996 5.9044 0.3667 0
M  V30 154 H -0.5782 6.0713 -2.0809 0
M  V30 155 H -1.1453 8.4066 -2.8010 0
M  V30 156 H -3.1685 8.2436 -4.1707 0
M  V30 157 C -4.7863 5.4889 -2.8030 0
M  V30 158 C -4.0733 5.8055 -1.6365 0
M  V30 159 C -3.7979 4.8371 -0.6994 0
M  V30 160 C -4.2446 3.5184 -0.8770 0
M  V30 161 N -4.0492 2.5659 0.1138 0
M  V30 162 C -4.1903 2.8967 1.4628 0
M  V30 163 C -5.0257 3.9463 1.8639 0
M  V30 164 C -5.1664 4.2583 3.1952 0
M  V30 165 C -4.5007 3.5155 4.1741 0
M  V30 166 C -3.6871 2.4465 3.7801 0
M  V30 167 C -3.5212 2.1525 2.4429 0
M  V30 168 C -4.0558 1.1958 -0.2477 0
M  V30 169 C -4.9657 0.3251 0.3508 0
M  V30 170 C -5.0458 -0.9837 -0.0725 0
M  V30 171 C -4.2116 -1.4482 -1.0915 0
M  V30 172 N -4.3693 -2.7838 -1.5244 0
M  V30 173 C -4.6365 -3.7276 -0.5093 0
M  V30 174 C -3.7102 -3.9070 0.5194 0
M  V30 175 C -3.9190 -4.8824 1.4711 0
M  V30 176 C -5.0622 -5.6850 1.4247 0
M  V30 177 C -6.0296 -5.4419 0.4408 0
M  V30 178 C -5.8145 -4.4800 -0.5191 0
M  V30 179 C -4.4486 -3.1695 -2.8422 0
M  V30 180 C -4.4426 -4.5398 -3.1649 0
M  V30 181 C -4.5652 -4.9590 -4.4650 0
M  V30 182 C -4.6642 -4.0440 -5.5219 0
M  V30 183 C -4.6063 -2.6739 -5.2069 0
M  V30 184 C -4.5094 -2.2485 -3.9032 0
M  V30 185 C -3.2463 -0.5985 -1.6329 0
M  V30 186 C -3.1784 0.7199 -1.2222 0
M  V30 187 C -4.8942 3.1900 -2.0747 0
M  V30 188 C -5.1569 4.1564 -3.0162 0
M  V30 189 H -3.7035 6.8086 -1.4952 0
M  V30 190 H -3.2438 5.0971 0.1884 0
M  V30 191 H -5.5960 4.4955 1.1322 0
M  V30 192 H -5.8501 5.0306 3.4992 0
M  V30 193 H -3.1487 1.8899 4.5303 0
M  V30 194 H -2.8698 1.3459 2.1459 0
M  V30 195 H -5.6376 0.6889 1.1109 0
M  V30 196 H -5.7856 -1.6404 0.3555 0
M  V30 197 H -2.8135 -3.3084 0.5427 0
M  V30 198 H -3.1758 -5.0696 2.2273 0
M  V30 199 H -6.9643 -5.9796 0.4583 0
M  V30 200 H -6.5618 -4.3027 -1.2768 0
M  V30 201 H -4.3493 -5.2816 -2.3894 0
M  V30 202 H -4.6282 -6.0114 -4.6907 0
M  V30 203 H -4.6115 -1.9344 -5.9902 0
M  V30 204 H -4.5074 -1.1899 -3.7022 0
M  V30 205 H -2.5479 -0.9764 -2.3612 0
M  V30 206 H -2.4483 1.3876 -1.6500 0
M  V30 207 H -5.2481 2.1857 -2.2386 0
M  V30 208 H -5.7306 3.9113 -3.8914 0
M  V30 209 C -1.3855 -5.7609 -7.7075 0
M  V30 210 C -0.1657 -6.2121 -7.1887 0
M  V30 211 C 0.8102 -5.3301 -6.8013 0
M  V30 212 C 0.6385 -3.9495 -6.9985 0
M  V30 213 N 1.6250 -3.0614 -6.6366 0
M  V30 214 C 2.9677 -3.4327 -6.4872 0
M  V30 215 C 3.5812 -4.3630 -7.3323 0
M  V30 216 C 4.8936 -4.7314 -7.1306 0
M  V30 217 C 5.6411 -4.1657 -6.0949 0
M  V30 218 C 5.0428 -3.1912 -5.2843 0
M  V30 219 C 3.7244 -2.8376 -5.4709 0
M  V30 220 C 1.3353 -1.6775 -6.5506 0
M  V30 221 C 2.1162 -0.7785 -7.2753 0
M  V30 222 C 1.8123 0.5646 -7.2620 0
M  V30 223 C 0.7296 1.0288 -6.5116 0
M  V30 224 N 0.4051 2.3904 -6.5113 0
M  V30 225 C 1.3870 3.3397 -6.7714 0
M  V30 226 C 2.6357 3.2613 -6.1420 0
M  V30 227 C 3.6265 4.1552 -6.4685 0
M  V30 228 C 3.4224 5.1467 -7.4373 0
M  V30 229 C 2.1607 5.2313 -8.0490 0
M  V30 230 C 1.1572 4.3557 -7.7073 0
M  V30 231 C -0.9283 2.8133 -6.4403 0
M  V30 232 C -1.2499 3.8498 -5.5577 0
M  V30 233 C -2.5420 4.3152 -5.4836 0
M  V30 234 C -3.5374 3.7823 -6.3120 0
M  V30 235 C -3.2143 2.7303 -7.1808 0
M  V30 236 C -1.9286 2.2365 -7.2276 0
M  V30 237 C -0.0262 0.1328 -5.7523 0
M  V30 238 C 0.2733 -1.2140 -5.7737 0
M  V30 239 C -0.5851 -3.4993 -7.5287 0
M  V30 240 C -1.5860 -4.3832 -7.8470 0
M  V30 241 H -0.0355 -7.2693 -7.0319 0
M  V30 242 H 1.7066 -5.7095 -6.3374 0
M  V30 243 H 3.0343 -4.7783 -8.1639 0
M  V30 244 H 5.3700 -5.4183 -7.8085 0
M  V30 245 H 5.6021 -2.7601 -4.4695 0
M  V30 246 H 3.2609 -2.1151 -4.8176 0
M  V30 247 H 2.9304 -1.1428 -7.8801 0
M  V30 248 H 2.3862 1.2481 -7.8658 0
M  V30 249 H 2.8073 2.5040 -5.3935 0
M  V30 250 H 4.5754 4.1264 -5.9618 0
M  V30 251 H 1.9866 5.9341 -8.8479 0
M  V30 252 H 0.2058 4.4084 -8.2123 0
M  V30 253 H -0.4806 4.2691 -4.9303 0
M  V30 254 H -2.8189 5.0707 -4.7648 0
M  V30 255 H -3.9526 2.3429 -7.8641 0
M  V30 256 H -1.6807 1.4380 -7.9088 0
M  V30 257 H -0.8401 0.5018 -5.1505 0
M  V30 258 H -0.3044 -1.9137 -5.1919 0
M  V30 259 H -0.7367 -2.4499 -7.7189 0
M  V30 260 H -2.5119 -4.0362 -8.2755 0
M  V30 261 C -2.1336 -8.2256 4.3152 0
M  V30 262 C -0.9659 -8.8187 4.8293 0
M  V30 263 C 0.1435 -8.9846 4.0375 0
M  V30 264 C 0.1474 -8.5732 2.6939 0
M  V30 265 N 1.3200 -8.5738 1.9651 0
M  V30 266 C 2.5543 -8.3957 2.5957 0
M  V30 267 C 3.6978 -9.0658 2.1465 0
M  V30 268 C 4.9283 -8.8206 2.7161 0
M  V30 269 C 5.0700 -7.8684 3.7396 0
M  V30 270 C 3.9115 -7.2385 4.2103 0
M  V30 271 C 2.6807 -7.4903 3.6552 0
M  V30 272 C 1.3116 -8.5788 0.5509 0
M  V30 273 C 0.5471 -9.4961 -0.1660 0
M  V30 274 C 0.5680 -9.4780 -1.5476 0
M  V30 275 C 1.3557 -8.5508 -2.2269 0
M  V30 276 N 1.3672 -8.5596 -3.6428 0
M  V30 277 C 2.5219 -8.5022 -4.3725 0
M  V30 278 C 3.7892 -8.5525 -3.7631 0
M  V30 279 C 4.9246 -8.2919 -4.4868 0
M  V30 280 C 4.8724 -8.0297 -5.8624 0
M  V30 281 C 3.6215 -8.1061 -6.4949 0
M  V30 282 C 2.4800 -8.3227 -5.7661 0
M  V30 283 C 0.0848 -8.4349 -4.2505 0
M  V30 284 C -0.5805 -7.2177 -4.1046 0
M  V30 285 C -1.8158 -7.0260 -4.6876 0
M  V30 286 C -2.4392 -8.0799 -5.3578 0
M  V30 287 C -1.7803 -9.3014 -5.4936 0
M  V30 288 C -0.5099 -9.4688 -4.9674 0
M  V30 289 C 2.0857 -7.6041 -1.5083 0
M  V30 290 C 2.0684 -7.6240 -0.1293 0
M  V30 291 C -1.0539 -8.1013 2.1423 0
M  V30 292 C -2.1595 -7.9349 2.9412 0
M  V30 293 H -0.9024 -9.1267 5.8596 0
M  V30 294 H 1.0288 -9.4337 4.4602 0
M  V30 295 H 3.6090 -9.8005 1.3616 0
M  V30 296 H 5.7714 -9.4096 2.3929 0
M  V30 297 H 3.9929 -6.5105 4.9979 0
M  V30 298 H 1.8116 -6.9674 4.0186 0
M  V30 299 H -0.0418 -10.2350 0.3546 0
M  V30 300 H -0.0080 -10.2029 -2.1006 0
M  V30 301 H 3.8771 -8.8039 -2.7194 0
M  V30 302 H 5.8844 -8.3227 -4.0025 0
M  V30 303 H 3.5374 -7.9196 -7.5535 0
M  V30 304 H 1.5332 -8.3541 -6.2759 0
M  V30 305 H -0.1144 -6.4186 -3.5508 0
M  V30 306 H -2.3217 -6.0777 -4.6117 0
M  V30 307 H -2.2460 -10.1063 -6.0426 0
M  V30 308 H 0.0067 -10.4075 -5.1007 0
M  V30 309 H 2.6497 -6.8482 -2.0308 0
M  V30 310 H 2.6254 -6.8900 0.4295 0
M  V30 311 H -1.0987 -7.8248 1.1016 0
M  V30 312 H -3.0717 -7.5433 2.5185 0
M  V30 313 Zn 7.4818 6.3220 4.6873 0 CHG=2
M  V30 314 C 11.7641 4.0742 5.2990 0
M  V30 315 C 10.5483 3.5138 5.6694 0
M  V30 316 C 9.3766 4.1929 5.3532 0
M  V30 317 H 10.5141 2.5715 6.1925 0
M  V30 318 N 9.3858 5.3660 4.6966 0
M  V30 319 C 8.0589 3.6765 5.6791 0
M  V30 320 C 10.5441 5.8908 4.3359 0
M  V30 321 C 11.7625 5.2810 4.6163 0
M  V30 322 H 10.5036 6.8296 3.8053 0
M  V30 323 H 12.6851 5.7470 4.3099 0
M  V30 324 H 12.6939 3.5809 5.5360 0
M  V30 325 N 7.0299 4.2731 5.2249 0
M  V30 326 H 7.9933 2.7697 6.2751 0
M  V30 327 C 7.7476 7.2503 9.4919 0
M  V30 328 C 6.5818 7.2756 8.7498 0
M  V30 329 C 6.6365 6.9765 7.3849 0
M  V30 330 H 5.6424 7.5321 9.2136 0
M  V30 331 N 7.7876 6.6421 6.7771 0
M  V30 332 C 5.4550 7.0219 6.5718 0
M  V30 333 C 8.9013 6.6332 7.4955 0
M  V30 334 C 8.9365 6.9278 8.8489 0
M  V30 335 H 9.8135 6.3920 6.9742 0
M  V30 336 H 9.8711 6.9113 9.3856 0
M  V30 337 H 7.7393 7.4829 10.5457 0
M  V30 338 N 5.4851 6.7756 5.3051 0
M  V30 339 H 4.5360 7.2640 7.0943 0
M  V30 340 C 8.5399 10.9358 3.5014 0
M  V30 341 C 8.2654 9.9399 2.5805 0
M  V30 342 C 7.9749 8.6540 3.0413 0
M  V30 343 H 8.2804 10.1535 1.5235 0
M  V30 344 N 7.9494 8.3547 4.3514 0
M  V30 345 C 7.7209 7.5694 2.1301 0
M  V30 346 C 8.2111 9.3130 5.2244 0
M  V30 347 C 8.5131 10.6158 4.8523 0
M  V30 348 H 8.1865 9.0469 6.2693 0
M  V30 349 H 8.7233 11.3593 5.6041 0
M  V30 350 H 8.7727 11.9400 3.1823 0
M  V30 351 N 7.5066 6.3723 2.5555 0
M  V30 352 H 7.7656 7.8011 1.0695 0
M  V30 353 Zn 6.7647 -6.6086 6.2385 0 CHG=2
M  V30 354 C 6.6037 -10.7159 8.7855 0
M  V30 355 C 5.6433 -9.7228 8.8667 0
M  V30 356 C 5.7389 -8.6173 8.0173 0
M  V30 357 H 4.8358 -9.7980 9.5782 0
M  V30 358 N 6.7380 -8.4931 7.1282 0
M  V30 359 C 4.7549 -7.5659 8.0437 0
M  V30 360 C 7.6467 -9.4510 7.0495 0
M  V30 361 C 7.6248 -10.5814 7.8532 0
M  V30 362 H 8.4286 -9.3167 6.3185 0
M  V30 363 H 8.3870 -11.3374 7.7563 0
M  V30 364 H 6.5603 -11.5789 9.4322 0
M  V30 365 N 4.8488 -6.5408 7.2707 0
M  V30 366 H 3.9363 -7.6974 8.7446 0
M  V30 367 C 8.6265 -4.1262 10.0571 0
M  V30 368 C 8.4795 -3.5840 8.7919 0
M  V30 369 C 7.9470 -4.3770 7.7743 0
M  V30 370 H 8.7762 -2.5663 8.5946 0
M  V30 371 N 7.5588 -5.6464 7.9862 0
M  V30 372 C 7.8055 -3.8785 6.4316 0
M  V30 373 C 7.7038 -6.1563 9.1977 0
M  V30 374 C 8.2343 -5.4414 10.2636 0
M  V30 375 H 7.3939 -7.1796 9.3397 0
M  V30 376 H 8.3390 -5.9095 11.2291 0
M  V30 377 H 9.0403 -3.5464 10.8674 0
M  V30 378 N 7.2375 -4.5871 5.5187 0
M  V30 379 H 8.1789 -2.8781 6.2372 0
M  V30 380 C 11.0480 -7.1269 3.9625 0
M  V30 381 C 9.8269 -7.4198 3.3789 0
M  V30 382 C 8.6662 -7.3107 4.1460 0
M  V30 383 H 9.7710 -7.7378 2.3502 0
M  V30 384 N 8.6991 -6.9076 5.4272 0
M  V30 385 C 7.3731 -7.6397 3.6029 0
M  V30 386 C 9.8706 -6.6448 5.9837 0
M  V30 387 C 11.0719 -6.7407 5.2954 0
M  V30 388 H 9.8559 -6.3484 7.0205 0
M  V30 389 H 12.0008 -6.5209 5.7963 0
M  V30 390 H 11.9656 -7.2040 3.4004 0
M  V30 391 N 6.2929 -7.4916 4.2877 0
M  V30 392 H 7.3600 -8.0096 2.5818 0
M  V30 393 Zn -4.9440 -6.6403 4.5153 0 CHG=2
M  V30 394 C -8.7905 -3.8434 3.4445 0
M  V30 395 C -7.5159 -3.3468 3.6651 0
M  V30 396 C -6.5112 -4.2271 4.0620 0
M  V30 397 H -7.3035 -2.2975 3.5368 0
M  V30 398 N -6.7381 -5.5441 4.2197 0
M  V30 399 C -5.1731 -3.7872 4.3641 0
M  V30 400 C -7.9615 -6.0081 4.0257 0
M  V30 401 C -9.0206 -5.1977 3.6397 0
M  V30 402 H -8.1066 -7.0644 4.1868 0
M  V30 403 H -10.0007 -5.6252 3.5014 0
M  V30 404 H -9.5963 -3.1951 3.1374 0
M  V30 405 N -4.2387 -4.6407 4.6062 0
M  V30 406 H -4.9858 -2.7169 4.3792 0
M  V30 407 C -5.4386 -7.2365 9.2698 0
M  V30 408 C -4.4494 -7.8398 8.5129 0
M  V30 409 C -4.3406 -7.5170 7.1574 0
M  V30 410 H -3.7762 -8.5552 8.9591 0
M  V30 411 N -5.1708 -6.6371 6.5734 0
M  V30 412 C -3.3143 -8.0981 6.3307 0
M  V30 413 C -6.1049 -6.0523 7.3070 0
M  V30 414 C -6.2795 -6.3160 8.6571 0
M  V30 415 H -6.7417 -5.3466 6.7970 0
M  V30 416 H -7.0563 -5.8218 9.2174 0
M  V30 417 H -5.5517 -7.4754 10.3162 0
M  V30 418 N -3.2047 -7.7963 5.0824 0
M  V30 419 H -2.6423 -8.7856 6.8328 0
M  V30 420 C -7.0973 -10.9271 3.5463 0
M  V30 421 C -6.7563 -9.9997 2.5764 0
M  V30 422 C -6.1648 -8.7985 2.9694 0
M  V30 423 H -6.9486 -10.2014 1.5346 0
M  V30 424 N -5.9062 -8.5161 4.2566 0
M  V30 425 C -5.8425 -7.7740 2.0127 0
M  V30 426 C -6.2386 -9.4061 5.1762 0
M  V30 427 C -6.8379 -10.6217 4.8750 0
M  V30 428 H -6.0321 -9.1502 6.2034 0
M  V30 429 H -7.0982 -11.3088 5.6640 0
M  V30 430 H -7.5609 -11.8645 3.2801 0
M  V30 431 N -5.2298 -6.6996 2.3665 0
M  V30 432 H -6.1438 -7.9509 0.9849 0
M  V30 433 Zn -4.4829 5.8403 6.4048 0 CHG=2
M  V30 434 C -4.3836 10.2273 8.6254 0
M  V30 435 C -3.2661 9.4739 8.3216 0
M  V30 436 C -3.4320 8.2137 7.7387 0
M  V30 437 H -2.2779 9.8471 8.5403 0
M  V30 438 N -4.6468 7.7211 7.4441 0
M  V30 439 C -2.3066 7.3570 7.4952 0
M  V30 440 C -5.7117 8.4403 7.7653 0
M  V30 441 C -5.6373 9.6927 8.3532 0
M  V30 442 H -6.6769 8.0037 7.5604 0
M  V30 443 H -6.5367 10.2352 8.5956 0
M  V30 444 H -4.2900 11.2036 9.0759 0
M  V30 445 N -2.4573 6.1583 7.0452 0
M  V30 446 H -1.3357 7.7465 7.7852 0
M  V30 447 C -5.7256 2.8470 10.0375 0
M  V30 448 C -5.4914 2.4081 8.7436 0
M  V30 449 C -5.1411 3.3429 7.7707 0
M  V30 450 H -5.5860 1.3632 8.4944 0
M  V30 451 N -5.0110 4.6517 8.0549 0
M  V30 452 C -4.9264 2.9732 6.3885 0
M  V30 453 C -5.2333 5.0643 9.2906 0
M  V30 454 C -5.5976 4.2002 10.3166 0
M  V30 455 H -5.1190 6.1206 9.4798 0
M  V30 456 H -5.7738 4.5845 11.3084 0
M  V30 457 H -6.0041 2.1558 10.8177 0
M  V30 458 N -4.6719 3.8760 5.5124 0
M  V30 459 H -5.0333 1.9245 6.1217 0
M  V30 460 C -8.7395 7.6556 4.9922 0
M  V30 461 C -7.5265 7.9892 4.4091 0
M  V30 462 C -6.3830 7.2883 4.7881 0
M  V30 463 H -7.4679 8.7816 3.6797 0
M  V30 464 N -6.4256 6.2994 5.6972 0
M  V30 465 C -5.0954 7.5271 4.1771 0
M  V30 466 C -7.5886 5.9704 6.2337 0
M  V30 467 C -8.7755 6.6174 5.9126 0
M  V30 468 H -7.5761 5.1584 6.9443 0
M  V30 469 H -9.7023 6.3198 6.3757 0
M  V30 470 H -9.6410 8.1875 4.7298 0
M  V30 471 N -4.0744 6.8466 4.5510 0
M  V30 472 H -5.0647 8.2382 3.3570 0
M  V30 473 Zn 6.6031 5.6494 -7.4972 0 CHG=2
M  V30 474 C 7.0540 2.6643 -11.3249 0
M  V30 475 C 7.0661 2.2325 -10.0086 0
M  V30 476 C 6.9298 3.1756 -8.9897 0
M  V30 477 H 7.1856 1.1862 -9.7763 0
M  V30 478 N 6.7764 4.4874 -9.2465 0
M  V30 479 C 6.9667 2.8065 -7.5963 0
M  V30 480 C 6.7607 4.8915 -10.5052 0
M  V30 481 C 6.8988 4.0199 -11.5786 0
M  V30 482 H 6.6340 5.9485 -10.6795 0
M  V30 483 H 6.8853 4.4010 -12.5871 0
M  V30 484 H 7.1640 1.9675 -12.1412 0
M  V30 485 N 6.9001 3.7110 -6.6824 0
M  V30 486 H 7.0893 1.7541 -7.3555 0
M  V30 487 C 10.8796 7.7569 -6.6706 0
M  V30 488 C 9.6889 8.1834 -6.0980 0
M  V30 489 C 8.5483 7.4053 -6.2700 0
M  V30 490 H 9.6485 9.0995 -5.5301 0
M  V30 491 N 8.5664 6.2606 -6.9742 0
M  V30 492 C 7.2765 7.7353 -5.6587 0
M  V30 493 C 9.7075 5.8468 -7.4992 0
M  V30 494 C 10.8934 6.5606 -7.3729 0
M  V30 495 H 9.6752 4.9123 -8.0384 0
M  V30 496 H 11.8031 6.1932 -7.8197 0
M  V30 497 H 11.7791 8.3435 -6.5656 0
M  V30 498 N 6.3218 6.8924 -5.7334 0
M  V30 499 H 7.1983 8.6660 -5.1033 0
M  V30 500 C 6.1734 9.9032 -9.8885 0
M  V30 501 C 5.1085 9.1825 -9.3801 0
M  V30 502 C 5.3512 7.9420 -8.7848 0
M  V30 503 H 4.1035 9.5680 -9.4498 0
M  V30 504 N 6.5917 7.4413 -8.6661 0
M  V30 505 C 4.2744 7.1184 -8.3111 0
M  V30 506 C 7.6014 8.1244 -9.1842 0
M  V30 507 C 7.4470 9.3544 -9.8041 0
M  V30 508 H 8.5782 7.6715 -9.1197 0
M  V30 509 H 8.3014 9.8681 -10.2140 0
M  V30 510 H 6.0208 10.8641 -10.3552 0
M  V30 511 N 4.4874 5.9682 -7.7692 0
M  V30 512 H 3.2755 7.5187 -8.4493 0
M  V30 513 Zn 7.7366 -6.6047 -5.8551 0 CHG=2
M  V30 514 C 9.8432 -11.0036 -5.2355 0
M  V30 515 C 9.3851 -10.2089 -4.1999 0
M  V30 516 C 8.8556 -8.9508 -4.4953 0
M  V30 517 H 9.4381 -10.5564 -3.1801 0
M  V30 518 N 8.7656 -8.4902 -5.7541 0
M  V30 519 C 8.4166 -8.0642 -3.4518 0
M  V30 520 C 9.2186 -9.2524 -6.7351 0
M  V30 521 C 9.7666 -10.5111 -6.5312 0
M  V30 522 H 9.1592 -8.8538 -7.7352 0
M  V30 523 H 10.1273 -11.0884 -7.3672 0
M  V30 524 H 10.2598 -11.9807 -5.0447 0
M  V30 525 N 7.8335 -6.9460 -3.7161 0
M  V30 526 H 8.6011 -8.3925 -2.4333 0
M  V30 527 C 11.4961 -3.6967 -4.7455 0
M  V30 528 C 10.2103 -3.2292 -4.9682 0
M  V30 529 C 9.2116 -4.1420 -5.3032 0
M  V30 530 H 9.9880 -2.1770 -4.8883 0
M  V30 531 N 9.4584 -5.4593 -5.4111 0
M  V30 532 C 7.8540 -3.7308 -5.5735 0
M  V30 533 C 10.6889 -5.8984 -5.2074 0
M  V30 534 C 11.7413 -5.0565 -4.8702 0
M  V30 535 H 10.8477 -6.9598 -5.3174 0
M  V30 536 H 12.7274 -5.4643 -4.7159 0
M  V30 537 H 12.2969 -3.0226 -4.4844 0
M  V30 538 N 6.9533 -4.5957 -5.8755 0
M  V30 539 H 7.6375 -2.6653 -5.5430 0
M  V30 540 C 8.4801 -7.1322 -10.5951 0
M  V30 541 C 7.4303 -7.7077 -9.9019 0
M  V30 542 C 7.2471 -7.3795 -8.5554 0
M  V30 543 H 6.7667 -8.4061 -10.3876 0
M  V30 544 N 8.0609 -6.5179 -7.9205 0
M  V30 545 C 6.1579 -7.9240 -7.7890 0
M  V30 546 C 9.0551 -5.9618 -8.5949 0
M  V30 547 C 9.3066 -6.2334 -9.9309 0
M  V30 548 H 9.6754 -5.2685 -8.0489 0
M  V30 549 H 10.1282 -5.7597 -10.4429 0
M  V30 550 H 8.6513 -7.3750 -11.6327 0
M  V30 551 N 6.0210 -7.6573 -6.5336 0
M  V30 552 H 5.4556 -8.5542 -8.3259 0
M  V30 553 Zn -4.4058 -6.5290 -7.5384 0 CHG=2
M  V30 554 C -6.1693 -4.0785 -11.3609 0
M  V30 555 C -6.0454 -3.5443 -10.0910 0
M  V30 556 C -5.4883 -4.3290 -9.0777 0
M  V30 557 H -6.3756 -2.5384 -9.8862 0
M  V30 558 N -5.0714 -5.5882 -9.3017 0
M  V30 559 C -5.3355 -3.8286 -7.7372 0
M  V30 560 C -5.1840 -6.0875 -10.5214 0
M  V30 561 C -5.7252 -5.3756 -11.5827 0
M  V30 562 H -4.8309 -7.0952 -10.6726 0
M  V30 563 H -5.7979 -5.8299 -12.5577 0
M  V30 564 H -6.5997 -3.5045 -12.1670 0
M  V30 565 N -4.8119 -4.5506 -6.8014 0
M  V30 566 H -5.7059 -2.8248 -7.5546 0
M  V30 567 C -8.3569 -8.9051 -6.0742 0
M  V30 568 C -7.0727 -9.2611 -5.6880 0
M  V30 569 C -6.0134 -8.4227 -6.0264 0
M  V30 570 H -6.8960 -10.1724 -5.1385 0
M  V30 571 N -6.1978 -7.2824 -6.7112 0
M  V30 572 C -4.6535 -8.7060 -5.6187 0
M  V30 573 C -7.4263 -6.9379 -7.0605 0
M  V30 574 C -8.5392 -7.7160 -6.7650 0
M  V30 575 H -7.5309 -6.0070 -7.5967 0
M  V30 576 H -9.5229 -7.4017 -7.0746 0
M  V30 577 H -9.1971 -9.5396 -5.8381 0
M  V30 578 N -3.7295 -7.8580 -5.8595 0
M  V30 579 H -4.4765 -9.6171 -5.0526 0
M  V30 580 C -3.8230 -10.7878 -9.9262 0
M  V30 581 C -2.7959 -9.9338 -9.5706 0
M  V30 582 C -3.1048 -8.7377 -8.9178 0
M  V30 583 H -1.7716 -10.1811 -9.8008 0
M  V30 584 N -4.3684 -8.4026 -8.6088 0
M  V30 585 C -2.0914 -7.7816 -8.5755 0
M  V30 586 C -5.3473 -9.2131 -8.9806 0
M  V30 587 C -5.1300 -10.4144 -9.6356 0
M  V30 588 H -6.3529 -8.8913 -8.7595 0
M  V30 589 H -5.9614 -11.0406 -9.9156 0
M  V30 590 H -3.6200 -11.7202 -10.4302 0
M  V30 591 N -2.3937 -6.6401 -8.0572 0
M  V30 592 H -1.0676 -8.0466 -8.8208 0
M  V30 593 Zn -5.2539 6.4013 -5.8929 0 CHG=2
M  V30 594 C -5.6974 7.2473 -10.7299 0
M  V30 595 C -4.5439 7.4646 -9.9986 0
M  V30 596 C -4.5258 7.1317 -8.6414 0
M  V30 597 H -3.6724 7.8961 -10.4653 0
M  V30 598 N -5.5916 6.5952 -8.0239 0
M  V30 599 C -3.3599 7.3808 -7.8377 0
M  V30 600 C -6.6911 6.3931 -8.7339 0
M  V30 601 C -6.7968 6.6987 -10.0824 0
M  V30 602 H -7.5376 5.9734 -8.2149 0
M  V30 603 H -7.7180 6.5165 -10.6117 0
M  V30 604 H -5.7455 7.5009 -11.7777 0
M  V30 605 N -3.3550 7.1818 -6.5666 0
M  V30 606 H -2.4956 7.7861 -8.3566 0
M  V30 607 C -6.7957 10.8499 -4.6511 0
M  V30 608 C -6.3902 9.8926 -3.7375 0
M  V30 609 C -5.9547 8.6518 -4.2072 0
M  V30 610 H -6.4133 10.1020 -2.6798 0
M  V30 611 N -5.9157 8.3627 -5.5191 0
M  V30 612 C -5.5456 7.6061 -3.3039 0
M  V30 613 C -6.3063 9.2817 -6.3854 0
M  V30 614 C -6.7537 10.5389 -6.0038 0
M  V30 615 H -6.2672 9.0160 -7.4301 0
M  V30 616 H -7.0622 11.2548 -6.7485 0
M  V30 617 H -7.1393 11.8191 -4.3238 0
M  V30 618 N -5.1638 6.4533 -3.7331 0
M  V30 619 H -5.6089 7.8293 -2.2418 0
M  V30 620 C -9.5582 4.1377 -6.1559 0
M  V30 621 C -8.3467 3.5237 -6.4318 0
M  V30 622 C -7.1679 4.2414 -6.2308 0
M  V30 623 H -8.3170 2.5113 -6.8018 0
M  V30 624 N -7.1741 5.5043 -5.7667 0
M  V30 625 C -5.8662 3.6584 -6.4563 0
M  V30 626 C -8.3323 6.0784 -5.4908 0
M  V30 627 C -9.5521 5.4378 -5.6703 0
M  V30 628 H -8.2940 7.0877 -5.1112 0
M  V30 629 H -10.4723 5.9491 -5.4378 0
M  V30 630 H -10.4907 3.6177 -6.3110 0
M  V30 631 N -4.8046 4.3395 -6.2047 0
M  V30 632 H -5.8350 2.6190 -6.7689 0
M  V30 END ATOM
M  V30 BEGIN BOND
M  V30 1 2 1 2
M  V30 2 1 2 3
M  V30 3 2 3 4
M  V30 4 1 4 5
M  V30 5 1 5 6
M  V30 6 2 6 7
M  V30 7 1 7 8
M  V30 8 2 8 9
M  V30 9 1 9 10
M  V30 10 2 10 11
M  V30 11 1 5 12
M  V30 12 2 12 13
M  V30 13 1 13 14
M  V30 14 2 14 15
M  V30 15 1 15 16
M  V30 16 1 16 17
M  V30 17 2 17 18
M  V30 18 1 18 19
M  V30 19 2 19 20
M  V30 20 1 20 21
M  V30 21 2 21 22
M  V30 22 1 16 23
M  V30 23 2 23 24
M  V30 24 1 24 25
M  V30 25 2 25 26
M  V30 26 1 26 27
M  V30 27 2 27 28
M  V30 28 1 15 29
M  V30 29 2 29 30
M  V30 30 1 4 31
M  V30 31 2 31 32
M  V30 32 1 32 1
M  V30 33 1 11 6
M  V30 34 1 30 12
M  V30 35 1 22 17
M  V30 36 1 28 23
M  V30 37 1 2 33
M  V30 38 1 3 34
M  V30 39 1 7 35
M  V30 40 1 8 36
M  V30 41 1 10 37
M  V30 42 1 11 38
M  V30 43 1 13 39
M  V30 44 1 14 40
M  V30 45 1 18 41
M  V30 46 1 19 42
M  V30 47 1 21 43
M  V30 48 1 22 44
M  V30 49 1 24 45
M  V30 50 1 25 46
M  V30 51 1 27 47
M  V30 52 1 28 48
M  V30 53 1 29 49
M  V30 54 1 30 50
M  V30 55 1 31 51
M  V30 56 1 32 52
M  V30 57 2 53 54
M  V30 58 1 54 55
M  V30 59 2 55 56
M  V30 60 1 56 57
M  V30 61 1 57 58
M  V30 62 2 58 59
M  V30 63 1 59 60
M  V30 64 2 60 61
M  V30 65 1 61 62
M  V30 66 2 62 63
M  V30 67 1 57 64
M  V30 68 2 64 65
M  V30 69 1 65 66
M  V30 70 2 66 67
M  V30 71 1 67 68
M  V30 72 1 68 69
M  V30 73 2 69 70
M  V30 74 1 70 71
M  V30 75 2 71 72
M  V30 76 1 72 73
M  V30 77 2 73 74
M  V30 78 1 68 75
M  V30 79 2 75 76
M  V30 80 1 76 77
M  V30 81 2 77 78
M  V30 82 1 78 79
M  V30 83 2 79 80
M  V30 84 1 67 81
M  V30 85 2 81 82
M  V30 86 1 56 83
M  V30 87 2 83 84
M  V30 88 1 84 53
M  V30 89 1 63 58
M  V30 90 1 82 64
M  V30 91 1 74 69
M  V30 92 1 80 75
M  V30 93 1 54 85
M  V30 94 1 55 86
M  V30 95 1 59 87
M  V30 96 1 60 88
M  V30 97 1 62 89
M  V30 98 1 63 90
M  V30 99 1 65 91
M  V30 100 1 66 92
M  V30 101 1 70 93
M  V30 102 1 71 94
M  V30 103 1 73 95
M  V30 104 1 74 96
M  V30 105 1 76 97
M  V30 106 1 77 98
M  V30 107 1 79 99
M  V30 108 1 80 100
M  V30 109 1 81 101
M  V30 110 1 82 102
M  V30 111 1 83 103
M  V30 112 1 84 104
M  V30 113 2 105 106
M  V30 114 1 106 107
M  V30 115 2 107 108
M  V30 116 1 108 109
M  V30 117 1 109 110
M  V30 118 2 110 111
M  V30 119 1 111 112
M  V30 120 2 112 113
M  V30 121 1 113 114
M  V30 122 2 114 115
M  V30 123 1 109 116
M  V30 124 2 116 117
M  V30 125 1 117 118
M  V30 126 2 118 119
M  V30 127 1 119 120
M  V30 128 1 120 121
M  V30 129 2 121 122
M  V30 130 1 122 123
M  V30 131 2 123 124
M  V30 132 1 124 125
M  V30 133 2 125 126
M  V30 134 1 120 127
M  V30 135 2 127 128
M  V30 136 1 128 129
M  V30 137 2 129 130
M  V30 138 1 130 131
M  V30 139 2 131 132
M  V30 140 1 119 133
M  V30 141 2 133 134
M  V30 142 1 108 135
M  V30 143 2 135 136
M  V30 144 1 136 105
M  V30 145 1 115 110
M  V30 146 1 134 116
M  V30 147 1 126 121
M  V30 148 1 132 127
M  V30 149 1 106 137
M  V30 150 1 107 138
M  V30 151 1 111 139
M  V30 152 1 112 140
M  V30 153 1 114 141
M  V30 154 1 115 142
M  V30 155 1 117 143
M  V30 156 1 118 144
M  V30 157 1 122 145
M  V30 158 1 123 146
M  V30 159 1 125 147
M  V30 160 1 126 148
M  V30 161 1 128 149
M  V30 162 1 129 150
M  V30 163 1 131 151
M  V30 164 1 132 152
M  V30 165 1 133 153
M  V30 166 1 134 154
M  V30 167 1 135 155
M  V30 168 1 136 156
M  V30 169 2 157 158
M  V30 170 1 158 159
M  V30 171 2 159 160
M  V30 172 1 160 161
M  V30 173 1 161 162
M  V30 174 2 162 163
M  V30 175 1 163 164
M  V30 176 2 164 165
M  V30 177 1 165 166
M  V30 178 2 166 167
M  V30 179 1 161 168
M  V30 180 2 168 169
M  V30 181 1 169 170
M  V30 182 2 170 171
M  V30 183 1 171 172
M  V30 184 1 172 173
M  V30 185 2 173 174
M  V30 186 1 174 175
M  V30 187 2 175 176
M  V30 188 1 176 177
M  V30 189 2 177 178
M  V30 190 1 172 179
M  V30 191 2 179 180
M  V30 192 1 180 181
M  V30 193 2 181 182
M  V30 194 1 182 183
M  V30 195 2 183 184
M  V30 196 1 171 185
M  V30 197 2 185 186
M  V30 198 1 160 187
M  V30 199 2 187 188
M  V30 200 1 188 157
M  V30 201 1 167 162
M  V30 202 1 186 168
M  V30 203 1 178 173
M  V30 204 1 184 179
M  V30 205 1 158 189
M  V30 206 1 159 190
M  V30 207 1 163 191
M  V30 208 1 164 192
M  V30 209 1 166 193
M  V30 210 1 167 194
M  V30 211 1 169 195
M  V30 212 1 170 196
M  V30 213 1 174 197
M  V30 214 1 175 198
M  V30 215 1 177 199
M  V30 216 1 178 200
M  V30 217 1 180 201
M  V30 218 1 181 202
M  V30 219 1 183 203
M  V30 220 1 184 204
M  V30 221 1 185 205
M  V30 222 1 186 206
M  V30 223 1 187 207
M  V30 224 1 188 208
M  V30 225 2 209 210
M  V30 226 1 210 211
M  V30 227 2 211 212
M  V30 228 1 212 213
M  V30 229 1 213 214
M  V30 230 2 214 215
M  V30 231 1 215 216
M  V30 232 2 216 217
M  V30 233 1 217 218
M  V30 234 2 218 219
M  V30 235 1 213 220
M  V30 236 2 220 221
M  V30 237 1 221 222
M  V30 238 2 222 223
M  V30 239 1 223 224
M  V30 240 1 224 225
M  V30 241 2 225 226
M  V30 242 1 226 227
M  V30 243 2 227 228
M  V30 244 1 228 229
M  V30 245 2 229 230
M  V30 246 1 224 231
M  V30 247 2 231 232
M  V30 248 1 232 233
M  V30 249 2 233 234
M  V30 250 1 234 235
M  V30 251 2 235 236
M  V30 252 1 223 237
M  V30 253 2 237 238
M  V30 254 1 212 239
M  V30 255 2 239 240
M  V30 256 1 240 209
M  V30 257 1 219 214
M  V30 258 1 238 220
M  V30 259 1 230 225
M  V30 260 1 236 231
M  V30 261 1 210 241
M  V30 262 1 211 242
M  V30 263 1 215 243
M  V30 264 1 216 244
M  V30 265 1 218 245
M  V30 266 1 219 246
M  V30 267 1 221 247
M  V30 268 1 222 248
M  V30 269 1 226 249
M  V30 270 1 227 250
M  V30 271 1 229 251
M  V30 272 1 230 252
M  V30 273 1 232 253
M  V30 274 1 233 254
M  V30 275 1 235 255
M  V30 276 1 236 256
M  V30 277 1 237 257
M  V30 278 1 238 258
M  V30 279 1 239 259
M  V30 280 1 240 260
M  V30 281 2 261 262
M  V30 282 1 262 263
M  V30 283 2 263 264
M  V30 284 1 264 265
M  V30 285 1 265 266
M  V30 286 2 266 267
M  V30 287 1 267 268
M  V30 288 2 268 269
M  V30 289 1 269 270
M  V30 290 2 270 271
M  V30 291 1 265 272
M  V30 292 2 272 273
M  V30 293 1 273 274
M  V30 294 2 274 275
M  V30 295 1 275 276
M  V30 296 1 276 277
M  V30 297 2 277 278
M  V30 298 1 278 279
M  V30 299 2 279 280
M  V30 300 1 280 281
M  V30 301 2 281 282
M  V30 302 1 276 283
M  V30 303 2 283 284
M  V30 304 1 284 285
M  V30 305 2 285 286
M  V30 306 1 286 287
M  V30 307 2 287 288
M  V30 308 1 275 289
M  V30 309 2 289 290
M  V30 310 1 264 291
M  V30 311 2 291 292
M  V30 312 1 292 261
M  V30 313 1 271 266
M  V30 314 1 290 272
M  V30 315 1 282 277
M  V30 316 1 288 283
M  V30 317 1 262 293
M  V30 318 1 263 294
M  V30 319 1 267 295
M  V30 320 1 268 296
M  V30 321 1 270 297
M  V30 322 1 271 298
M  V30 323 1 273 299
M  V30 324 1 274 300
M  V30 325 1 278 301
M  V30 326 1 279 302
M  V30 327 1 281 303
M  V30 328 1 282 304
M  V30 329 1 284 305
M  V30 330 1 285 306
M  V30 331 1 287 307
M  V30 332 1 288 308
M  V30 333 1 289 309
M  V30 334 1 290 310
M  V30 335 1 291 311
M  V30 336 1 292 312
M  V30 337 1 314 324
M  V30 338 2 314 321
M  V30 339 1 315 314
M  V30 340 2 316 315
M  V30 341 1 316 318
M  V30 342 1 317 315
M  V30 343 2 318 320
M  V30 344 1 319 316
M  V30 345 1 320 321
M  V30 346 1 320 322
M  V30 347 1 321 323
M  V30 348 2 325 319
M  V30 349 1 326 319
M  V30 350 1 327 337
M  V30 351 2 327 334
M  V30 352 1 328 327
M  V30 353 2 329 328
M  V30 354 1 329 331
M  V30 355 1 330 328
M  V30 356 2 331 333
M  V30 357 1 332 329
M  V30 358 1 333 334
M  V30 359 1 333 335
M  V30 360 1 334 336
M  V30 361 2 338 332
M  V30 362 1 339 332
M  V30 363 1 340 350
M  V30 364 2 340 347
M  V30 365 1 341 340
M  V30 366 2 342 341
M  V30 367 1 342 344
M  V30 368 1 343 341
M  V30 369 2 344 346
M  V30 370 1 345 342
M  V30 371 1 346 347
M  V30 372 1 346 348
M  V30 373 1 347 349
M  V30 374 2 351 345
M  V30 375 1 352 345
M  V30 376 9 325 313
M  V30 377 9 318 313
M  V30 378 9 338 313
M  V30 379 9 331 313
M  V30 380 9 351 313
M  V30 381 9 344 313
M  V30 382 1 354 364
M  V30 383 2 354 361
M  V30 384 1 355 354
M  V30 385 2 356 355
M  V30 386 1 356 358
M  V30 387 1 357 355
M  V30 388 2 358 360
M  V30 389 1 359 356
M  V30 390 1 360 361
M  V30 391 1 360 362
M  V30 392 1 361 363
M  V30 393 2 365 359
M  V30 394 1 366 359
M  V30 395 1 367 377
M  V30 396 2 367 374
M  V30 397 1 368 367
M  V30 398 2 369 368
M  V30 399 1 369 371
M  V30 400 1 370 368
M  V30 401 2 371 373
M  V30 402 1 372 369
M  V30 403 1 373 374
M  V30 404 1 373 375
M  V30 405 1 374 376
M  V30 406 2 378 372
M  V30 407 1 379 372
M  V30 408 1 380 390
M  V30 409 2 380 387
M  V30 410 1 381 380
M  V30 411 2 382 381
M  V30 412 1 382 384
M  V30 413 1 383 381
M  V30 414 2 384 386
M  V30 415 1 385 382
M  V30 416 1 386 387
M  V30 417 1 386 388
M  V30 418 1 387 389
M  V30 419 2 391 385
M  V30 420 1 392 385
M  V30 421 9 365 353
M  V30 422 9 358 353
M  V30 423 9 378 353
M  V30 424 9 371 353
M  V30 425 9 391 353
M  V30 426 9 384 353
M  V30 427 1 394 404
M  V30 428 2 394 401
M  V30 429 1 395 394
M  V30 430 2 396 395
M  V30 431 1 396 398
M  V30 432 1 397 395
M  V30 433 2 398 400
M  V30 434 1 399 396
M  V30 435 1 400 401
M  V30 436 1 400 402
M  V30 437 1 401 403
M  V30 438 2 405 399
M  V30 439 1 406 399
M  V30 440 1 407 417
M  V30 441 2 407 414
M  V30 442 1 408 407
M  V30 443 2 409 408
M  V30 444 1 409 411
M  V30 445 1 410 408
M  V30 446 2 411 413
M  V30 447 1 412 409
M  V30 448 1 413 414
M  V30 449 1 413 415
M  V30 450 1 414 416
M  V30 451 2 418 412
M  V30 452 1 419 412
M  V30 453 1 420 430
M  V30 454 2 420 427
M  V30 455 1 421 420
M  V30 456 2 422 421
M  V30 457 1 422 424
M  V30 458 1 423 421
M  V30 459 2 424 426
M  V30 460 1 425 422
M  V30 461 1 426 427
M  V30 462 1 426 428
M  V30 463 1 427 429
M  V30 464 2 431 425
M  V30 465 1 432 425
M  V30 466 9 405 393
M  V30 467 9 398 393
M  V30 468 9 418 393
M  V30 469 9 411 393
M  V30 470 9 431 393
M  V30 471 9 424 393
M  V30 472 1 434 444
M  V30 473 2 434 441
M  V30 474 1 435 434
M  V30 475 2 436 435
M  V30 476 1 436 438
M  V30 477 1 437 435
M  V30 478 2 438 440
M  V30 479 1 439 436
M  V30 480 1 440 441
M  V30 481 1 440 442
M  V30 482 1 441 443
M  V30 483 2 445 439
M  V30 484 1 446 439
M  V30 485 1 447 457
M  V30 486 2 447 454
M  V30 487 1 448 447
M  V30 488 2 449 448
M  V30 489 1 449 451
M  V30 490 1 450 448
M  V30 491 2 451 453
M  V30 492 1 452 449
M  V30 493 1 453 454
M  V30 494 1 453 455
M  V30 495 1 454 456
M  V30 496 2 458 452
M  V30 497 1 459 452
M  V30 498 1 460 470
M  V30 499 2 460 467
M  V30 500 1 461 460
M  V30 501 2 462 461
M  V30 502 1 462 464
M  V30 503 1 463 461
M  V30 504 2 464 466
M  V30 505 1 465 462
M  V30 506 1 466 467
M  V30 507 1 466 468
M  V30 508 1 467 469
M  V30 509 2 471 465
M  V30 510 1 472 465
M  V30 511 9 445 433
M  V30 512 9 438 433
M  V30 513 9 458 433
M  V30 514 9 451 433
M  V30 515 9 471 433
M  V30 516 9 464 433
M  V30 517 1 474 484
M  V30 518 2 474 481
M  V30 519 1 475 474
M  V30 520 2 476 475
M  V30 521 1 476 478
M  V30 522 1 477 475
M  V30 523 2 478 480
M  V30 524 1 479 476
M  V30 525 1 480 481
M  V30 526 1 480 482
M  V30 527 1 481 483
M  V30 528 2 485 479
M  V30 529 1 486 479
M  V30 530 1 487 497
M  V30 531 2 487 494
M  V30 532 1 488 487
M  V30 533 2 489 488
M  V30 534 1 489 491
M  V30 535 1 490 488
M  V30 536 2 491 493
M  V30 537 1 492 489
M  V30 538 1 493 494
M  V30 539 1 493 495
M  V30 540 1 494 496
M  V30 541 2 498 492
M  V30 542 1 499 492
M  V30 543 1 500 510
M  V30 544 2 500 507
M  V30 545 1 501 500
M  V30 546 2 502 501
M  V30 547 1 502 504
M  V30 548 1 503 501
M  V30 549 2 504 506
M  V30 550 1 505 502
M  V30 551 1 506 507
M  V30 552 1 506 508
M  V30 553 1 507 509
M  V30 554 2 511 505
M  V30 555 1 512 505
M  V30 556 9 485 473
M  V30 557 9 478 473
M  V30 558 9 498 473
M  V30 559 9 491 473
M  V30 560 9 511 473
M  V30 561 9 504 473
M  V30 562 1 514 524
M  V30 563 2 514 521
M  V30 564 1 515 514
M  V30 565 2 516 515
M  V30 566 1 516 518
M  V30 567 1 517 515
M  V30 568 2 518 520
M  V30 569 1 519 516
M  V30 570 1 520 521
M  V30 571 1 520 522
M  V30 572 1 521 523
M  V30 573 2 525 519
M  V30 574 1 526 519
M  V30 575 1 527 537
M  V30 576 2 527 534
M  V30 577 1 528 527
M  V30 578 2 529 528
M  V30 579 1 529 531
M  V30 580 1 530 528
M  V30 581 2 531 533
M  V30 582 1 532 529
M  V30 583 1 533 534
M  V30 584 1 533 535
M  V30 585 1 534 536
M  V30 586 2 538 532
M  V30 587 1 539 532
M  V30 588 1 540 550
M  V30 589 2 540 547
M  V30 590 1 541 540
M  V30 591 2 542 541
M  V30 592 1 542 544
M  V30 593 1 543 541
M  V30 594 2 544 546
M  V30 595 1 545 542
M  V30 596 1 546 547
M  V30 597 1 546 548
M  V30 598 1 547 549
M  V30 599 2 551 545
M  V30 600 1 552 545
M  V30 601 9 525 513
M  V30 602 9 518 513
M  V30 603 9 538 513
M  V30 604 9 531 513
M  V30 605 9 551 513
M  V30 606 9 544 513
M  V30 607 1 554 564
M  V30 608 2 554 561
M  V30 609 1 555 554
M  V30 610 2 556 555
M  V30 611 1 556 558
M  V30 612 1 557 555
M  V30 613 2 558 560
M  V30 614 1 559 556
M  V30 615 1 560 561
M  V30 616 1 560 562
M  V30 617 1 561 563
M  V30 618 2 565 559
M  V30 619 1 566 559
M  V30 620 1 567 577
M  V30 621 2 567 574
M  V30 622 1 568 567
M  V30 623 2 569 568
M  V30 624 1 569 571
M  V30 625 1 570 568
M  V30 626 2 571 573
M  V30 627 1 572 569
M  V30 628 1 573 574
M  V30 629 1 573 575
M  V30 630 1 574 576
M  V30 631 2 578 572
M  V30 632 1 579 572
M  V30 633 1 580 590
M  V30 634 2 580 587
M  V30 635 1 581 580
M  V30 636 2 582 581
M  V30 637 1 582 584
M  V30 638 1 583 581
M  V30 639 2 584 586
M  V30 640 1 585 582
M  V30 641 1 586 587
M  V30 642 1 586 588
M  V30 643 1 587 589
M  V30 644 2 591 585
M  V30 645 1 592 585
M  V30 646 9 565 553
M  V30 647 9 558 553
M  V30 648 9 578 553
M  V30 649 9 571 553
M  V30 650 9 591 553
M  V30 651 9 584 553
M  V30 652 1 594 604
M  V30 653 2 594 601
M  V30 654 1 595 594
M  V30 655 2 596 595
M  V30 656 1 596 598
M  V30 657 1 597 595
M  V30 658 2 598 600
M  V30 659 1 599 596
M  V30 660 1 600 601
M  V30 661 1 600 602
M  V30 662 1 601 603
M  V30 663 2 605 599
M  V30 664 1 606 599
M  V30 665 1 607 617
M  V30 666 2 607 614
M  V30 667 1 608 607
M  V30 668 2 609 608
M  V30 669 1 609 611
M  V30 670 1 610 608
M  V30 671 2 611 613
M  V30 672 1 612 609
M  V30 673 1 613 614
M  V30 674 1 613 615
M  V30 675 1 614 616
M  V30 676 2 618 612
M  V30 677 1 619 612
M  V30 678 1 620 630
M  V30 679 2 620 627
M  V30 680 1 621 620
M  V30 681 2 622 621
M  V30 682 1 622 624
M  V30 683 1 623 621
M  V30 684 2 624 626
M  V30 685 1 625 622
M  V30 686 1 626 627
M  V30 687 1 626 628
M  V30 688 1 627 629
M  V30 689 2 631 625
M  V30 690 1 632 625
M  V30 691 9 605 593
M  V30 692 9 598 593
M  V30 693 9 618 593
M  V30 694 9 611 593
M  V30 695 9 631 593
M  V30 696 9 624 593
M  V30 697 1 9 325
M  V30 698 1 20 365
M  V30 699 1 26 405
M  V30 700 1 1 445
M  V30 701 1 61 485
M  V30 702 1 72 525
M  V30 703 1 78 378
M  V30 704 1 53 351
M  V30 705 1 113 498
M  V30 706 1 124 338
M  V30 707 1 130 471
M  V30 708 1 105 605
M  V30 709 1 165 458
M  V30 710 1 176 431
M  V30 711 1 182 565
M  V30 712 1 157 618
M  V30 713 1 217 538
M  V30 714 1 228 511
M  V30 715 1 234 631
M  V30 716 1 209 591
M  V30 717 1 269 391
M  V30 718 1 280 551
M  V30 719 1 286 578
M  V30 720 1 261 418
M  V30 END BOND
M  V30 END CTAB
M  END

$$$$
