
     RDKit          3D

  0  0  0  0  0  0  0  0  0  0999 V3000
M  V30 BEGIN CTAB
M  V30 COUNTS 632 720 0 0 0
M  V30 BEGIN ATOM
M  V30 1 C -3.8165 4.5991 7.8414 0
M  V30 2 C -2.7934 5.3611 7.2672 0
M  V30 3 C -1.5289 4.8445 7.1136 0
M  V30 4 C -1.2456 3.5326 7.5206 0
M  V30 5 N -0.0019 2.9631 7.2766 0
M  V30 6 C 1.1486 3.7351 7.2566 0
M  V30 7 C 1.2767 4.8628 8.0804 0
M  V30 8 C 2.3363 5.7239 7.9277 0
M  V30 9 C 3.3250 5.4833 6.9588 0
M  V30 10 C 3.2669 4.2782 6.2505 0
M  V30 11 C 2.1977 3.4217 6.3850 0
M  V30 12 C 0.0359 1.5722 7.0139 0
M  V30 13 C 0.9090 0.7298 7.6991 0
M  V30 14 C 0.7851 -0.6415 7.5730 0
M  V30 15 C -0.2123 -1.1791 6.7598 0
M  V30 16 N -0.4907 -2.5609 6.7744 0
M  V30 17 C 0.5545 -3.4912 6.8657 0
M  V30 18 C 1.6231 -3.4388 5.9666 0
M  V30 19 C 2.5947 -4.4144 6.0066 0
M  V30 20 C 2.5430 -5.4452 6.9490 0
M  V30 21 C 1.5048 -5.4562 7.8901 0
M  V30 22 C 0.5204 -4.4961 7.8398 0
M  V30 23 C -1.7982 -3.0031 6.8682 0
M  V30 24 C -2.1357 -4.2895 6.4155 0
M  V30 25 C -3.4317 -4.7350 6.4902 0
M  V30 26 C -4.4492 -3.9333 7.0248 0
M  V30 27 C -4.1138 -2.6372 7.4514 0
M  V30 28 C -2.8212 -2.1828 7.3692 0
M  V30 29 C -0.9873 -0.3310 5.9641 0
M  V30 30 C -0.8680 1.0354 6.0939 0
M  V30 31 C -2.2662 2.7751 8.1118 0
M  V30 32 C -3.5250 3.3002 8.2815 0
M  V30 33 H -3.0136 6.3723 6.9640 0
M  V30 34 H -0.7625 5.4443 6.6500 0
M  V30 35 H 0.5374 5.0620 8.8404 0
M  V30 36 H 2.4311 6.5712 8.5895 0
M  V30 37 H 4.0350 4.0355 5.5388 0
M  V30 38 H 2.1429 2.5324 5.7776 0
M  V30 39 H 1.6338 1.1475 8.3789 0
M  V30 40 H 1.4152 -1.2944 8.1552 0
M  V30 41 H 1.6603 -2.6585 5.2229 0
M  V30 42 H 3.3879 -4.4399 5.2806 0
M  V30 43 H 1.4960 -6.1858 8.6844 0
M  V30 44 H -0.2763 -4.5107 8.5673 0
M  V30 45 H -1.3741 -4.9277 5.9983 0
M  V30 46 H -3.6867 -5.7273 6.1548 0
M  V30 47 H -4.8693 -1.9701 7.8305 0
M  V30 48 H -2.5933 -1.1915 7.7243 0
M  V30 49 H -1.6993 -0.7507 5.2730 0
M  V30 50 H -1.4868 1.6958 5.5087 0
M  V30 51 H -2.0610 1.7737 8.4530 0
M  V30 52 H -4.2992 2.6869 8.7131 0
M  V30 53 C 5.7786 3.0899 -5.3716 0
M  V30 54 C 4.9187 1.9921 -5.2303 0
M  V30 55 C 5.1585 1.0464 -4.2620 0
M  V30 56 C 6.2554 1.1726 -3.4002 0
M  V30 57 N 6.5825 0.0498 -2.6040 0
M  V30 58 C 6.7731 -1.0947 -3.3763 0
M  V30 59 C 7.4194 -0.9513 -4.6161 0
M  V30 60 C 7.4136 -1.9646 -5.5392 0
M  V30 61 C 6.7562 -3.1749 -5.2606 0
M  V30 62 C 6.2750 -3.3764 -3.9588 0
M  V30 63 C 6.2682 -2.3553 -3.0326 0
M  V30 64 C 6.6634 0.0945 -1.2159 0
M  V30 65 C 7.3606 -0.8878 -0.5037 0
M  V30 66 C 7.3686 -0.8787 0.8742 0
M  V30 67 C 6.6967 0.1215 1.5835 0
M  V30 68 N 6.6487 0.0772 2.9796 0
M  V30 69 C 6.6431 -1.1284 3.6943 0
M  V30 70 C 5.8166 -2.2018 3.3509 0
M  V30 71 C 5.5832 -3.2090 4.2657 0
M  V30 72 C 6.1489 -3.1621 5.5441 0
M  V30 73 C 7.1238 -2.1874 5.8062 0
M  V30 74 C 7.3766 -1.1983 4.8889 0
M  V30 75 C 6.5421 1.2026 3.7964 0
M  V30 76 C 5.7137 1.1079 4.9296 0
M  V30 77 C 5.7143 2.0894 5.8851 0
M  V30 78 C 6.5056 3.2372 5.7194 0
M  V30 79 C 7.2252 3.3913 4.5291 0
M  V30 80 C 7.2513 2.3881 3.5811 0
M  V30 81 C 6.0396 1.1310 0.8731 0
M  V30 82 C 6.0192 1.1143 -0.5056 0
M  V30 83 C 7.0386 2.3240 -3.4564 0
M  V30 84 C 6.8061 3.2660 -4.4419 0
M  V30 85 H 4.0574 1.9025 -5.8719 0
M  V30 86 H 4.5108 0.1889 -4.1717 0
M  V30 87 H 7.9305 -0.0306 -4.8482 0
M  V30 88 H 7.9514 -1.8424 -6.4660 0
M  V30 89 H 5.8486 -4.3317 -3.7011 0
M  V30 90 H 5.8158 -2.5112 -2.0667 0
M  V30 91 H 7.9172 -1.6447 -1.0328 0
M  V30 92 H 7.9184 -1.6362 1.4099 0
M  V30 93 H 5.3001 -2.2007 2.4045 0
M  V30 94 H 4.8930 -3.9949 4.0133 0
M  V30 95 H 7.6869 -2.2293 6.7252 0
M  V30 96 H 8.1167 -0.4446 5.1066 0
M  V30 97 H 5.0719 0.2505 5.0531 0
M  V30 98 H 5.0660 2.0092 6.7427 0
M  V30 99 H 7.8252 4.2758 4.3961 0
M  V30 100 H 7.8666 2.4964 2.7025 0
M  V30 101 H 5.5172 1.9066 1.4093 0
M  V30 102 H 5.4803 1.8773 -1.0432 0
M  V30 103 H 7.8698 2.4429 -2.7798 0
M  V30 104 H 7.4807 4.0966 -4.5592 0
M  V30 105 C 5.6214 6.4512 -3.4281 0
M  V30 106 C 6.1476 5.8979 -2.2523 0
M  V30 107 C 5.3987 5.8737 -1.1040 0
M  V30 108 C 4.1128 6.4387 -1.0721 0
M  V30 109 N 3.4366 6.4773 0.1380 0
M  V30 110 C 4.2173 6.6495 1.2860 0
M  V30 111 C 5.2552 7.5922 1.2900 0
M  V30 112 C 6.1286 7.6755 2.3486 0
M  V30 113 C 5.9946 6.7944 3.4313 0
M  V30 114 C 4.9045 5.9188 3.4570 0
M  V30 115 C 4.0164 5.8439 2.4101 0
M  V30 116 C 2.0362 6.4470 0.2302 0
M  V30 117 C 1.3901 7.2110 1.2039 0
M  V30 118 C 0.0130 7.2401 1.2653 0
M  V30 119 C -0.7472 6.5065 0.3537 0
M  V30 120 N -2.1540 6.6065 0.3560 0
M  V30 121 C -2.8013 6.8087 1.5874 0
M  V30 122 C -2.5616 5.9336 2.6514 0
M  V30 123 C -3.1550 6.1508 3.8782 0
M  V30 124 C -3.9315 7.2940 4.0849 0
M  V30 125 C -4.1890 8.1571 3.0172 0
M  V30 126 C -3.6599 7.8965 1.7712 0
M  V30 127 C -2.8459 6.7966 -0.8308 0
M  V30 128 C -4.1901 6.4042 -0.9266 0
M  V30 129 C -4.8871 6.5611 -2.1025 0
M  V30 130 C -4.2801 7.1574 -3.2131 0
M  V30 131 C -2.9360 7.5457 -3.1204 0
M  V30 132 C -2.2252 7.3456 -1.9611 0
M  V30 133 C -0.1009 5.6860 -0.5745 0
M  V30 134 C 1.2773 5.6566 -0.6370 0
M  V30 135 C 3.5675 6.9441 -2.2584 0
M  V30 136 C 4.3104 6.9413 -3.4171 0
M  V30 137 H 7.1233 5.4408 -2.2664 0
M  V30 138 H 5.8055 5.4158 -0.2169 0
M  V30 139 H 5.3685 8.2643 0.4534 0
M  V30 140 H 6.8906 8.4389 2.3506 0
M  V30 141 H 4.8254 5.2581 4.3013 0
M  V30 142 H 3.2000 5.1395 2.4288 0
M  V30 143 H 1.9683 7.8175 1.8825 0
M  V30 144 H -0.4745 7.8688 1.9926 0
M  V30 145 H -1.9142 5.0836 2.5062 0
M  V30 146 H -2.9950 5.4741 4.7013 0
M  V30 147 H -4.8244 9.0165 3.1670 0
M  V30 148 H -3.8736 8.5651 0.9521 0
M  V30 149 H -4.6787 5.9680 -0.0711 0
M  V30 150 H -5.9209 6.2659 -2.1717 0
M  V30 151 H -2.4409 7.9707 -3.9789 0
M  V30 152 H -1.1929 7.6516 -1.9169 0
M  V30 153 H -0.6858 5.0771 -1.2447 0
M  V30 154 H 1.7730 5.0205 -1.3518 0
M  V30 155 H 2.5818 7.3798 -2.2556 0
M  V30 156 H 3.9141 7.3839 -4.3147 0
M  V30 157 C -5.8036 4.1975 4.3874 0
M  V30 158 C -5.7716 3.1424 5.3096 0
M  V30 159 C -5.4380 1.8686 4.9122 0
M  V30 160 C -5.1116 1.6024 3.5720 0
M  V30 161 N -4.8512 0.3322 3.1184 0
M  V30 162 C -5.3609 -0.8493 3.7103 0
M  V30 163 C -6.6575 -0.9267 4.2209 0
M  V30 164 C -7.2126 -2.1573 4.5104 0
M  V30 165 C -6.4595 -3.3206 4.3478 0
M  V30 166 C -5.1213 -3.2341 3.9571 0
M  V30 167 C -4.5910 -2.0107 3.6053 0
M  V30 168 C -4.7790 0.1565 1.6885 0
M  V30 169 C -5.9888 0.0703 1.0057 0
M  V30 170 C -5.9873 -0.0890 -0.3608 0
M  V30 171 C -4.7760 -0.1710 -1.0415 0
M  V30 172 N -4.8444 -0.3302 -2.4732 0
M  V30 173 C -5.1115 -1.5920 -2.9464 0
M  V30 174 C -5.0066 -2.6967 -2.0807 0
M  V30 175 C -5.3812 -3.9470 -2.4975 0
M  V30 176 C -5.8271 -4.1635 -3.8113 0
M  V30 177 C -5.7797 -3.0927 -4.7144 0
M  V30 178 C -5.4330 -1.8307 -4.2928 0
M  V30 179 C -5.3510 0.8580 -3.0557 0
M  V30 180 C -4.5771 2.0162 -2.9505 0
M  V30 181 C -5.1014 3.2408 -3.3082 0
M  V30 182 C -6.4373 3.3319 -3.7055 0
M  V30 183 C -7.1965 2.1717 -3.8623 0
M  V30 184 C -6.6476 0.9402 -3.5658 0
M  V30 185 C -3.5684 -0.0927 -0.3645 0
M  V30 186 C -3.5699 0.0738 1.0147 0
M  V30 187 C -4.9911 2.6909 2.6877 0
M  V30 188 C -5.3542 3.9521 3.0798 0
M  V30 189 H -6.0867 3.3326 6.3223 0
M  V30 190 H -5.4524 1.0651 5.6304 0
M  V30 191 H -7.2583 -0.0376 4.3320 0
M  V30 192 H -8.2285 -2.2216 4.8691 0
M  V30 193 H -4.5486 -4.1433 3.8651 0
M  V30 194 H -3.5854 -1.9524 3.2215 0
M  V30 195 H -6.9184 0.1361 1.5469 0
M  V30 196 H -6.9159 -0.1546 -0.9035 0
M  V30 197 H -4.6580 -2.5653 -1.0699 0
M  V30 198 H -5.2943 -4.7820 -1.8231 0
M  V30 199 H -6.0960 -3.2604 -5.7305 0
M  V30 200 H -5.4357 -1.0138 -4.9955 0
M  V30 201 H -3.5732 1.9554 -2.5630 0
M  V30 202 H -4.5246 4.1477 -3.2186 0
M  V30 203 H -8.2111 2.2393 -4.2236 0
M  V30 204 H -7.2523 0.0534 -3.6743 0
M  V30 205 H -2.6400 -0.1710 -0.9062 0
M  V30 206 H -2.6433 0.1518 1.5595 0
M  V30 207 H -4.6378 2.5390 1.6815 0
M  V30 208 H -5.2535 4.7735 2.3909 0
M  V30 209 C -3.8021 -4.4998 -7.2148 0
M  V30 210 C -2.7791 -5.2945 -6.6873 0
M  V30 211 C -1.5090 -4.7916 -6.5267 0
M  V30 212 C -1.2247 -3.4631 -6.8736 0
M  V30 213 N 0.0362 -2.9230 -6.6405 0
M  V30 214 C 1.1763 -3.6975 -6.7631 0
M  V30 215 C 1.2329 -4.7533 -7.6854 0
M  V30 216 C 2.2962 -5.6216 -7.6911 0
M  V30 217 C 3.3489 -5.4675 -6.7732 0
M  V30 218 C 3.3584 -4.3211 -5.9666 0
M  V30 219 C 2.2915 -3.4533 -5.9519 0
M  V30 220 C 0.1083 -1.5471 -6.3192 0
M  V30 221 C 0.9661 -0.6928 -7.0094 0
M  V30 222 C 0.8570 0.6743 -6.8396 0
M  V30 223 C -0.1053 1.1946 -5.9750 0
M  V30 224 N -0.3925 2.5755 -5.9641 0
M  V30 225 C 0.6493 3.5025 -6.1442 0
M  V30 226 C 1.7302 3.5316 -5.2591 0
M  V30 227 C 2.7211 4.4810 -5.4117 0
M  V30 228 C 2.6563 5.4057 -6.4585 0
M  V30 229 C 1.5975 5.3414 -7.3724 0
M  V30 230 C 0.6026 4.4056 -7.2111 0
M  V30 231 C -1.7015 3.0084 -6.0822 0
M  V30 232 C -2.0384 4.3196 -5.7071 0
M  V30 233 C -3.3322 4.7655 -5.8185 0
M  V30 234 C -4.3478 3.9376 -6.3151 0
M  V30 235 C -4.0143 2.6177 -6.6604 0
M  V30 236 C -2.7248 2.1635 -6.5401 0
M  V30 237 C -0.8506 0.3306 -5.1687 0
M  V30 238 C -0.7509 -1.0326 -5.3453 0
M  V30 239 C -2.2499 -2.6671 -7.4004 0
M  V30 240 C -3.5128 -3.1789 -7.5828 0
M  V30 241 H -3.0009 -6.3190 -6.4334 0
M  V30 242 H -0.7364 -5.4178 -6.1105 0
M  V30 243 H 0.4365 -4.8861 -8.4012 0
M  V30 244 H 2.3361 -6.4029 -8.4339 0
M  V30 245 H 4.1894 -4.1448 -5.3060 0
M  V30 246 H 2.2910 -2.6125 -5.2772 0
M  V30 247 H 1.6606 -1.0964 -7.7283 0
M  V30 248 H 1.4628 1.3392 -7.4338 0
M  V30 249 H 1.7672 2.8312 -4.4393 0
M  V30 250 H 3.5292 4.5631 -4.7009 0
M  V30 251 H 1.5864 5.9929 -8.2320 0
M  V30 252 H -0.2086 4.3595 -7.9207 0
M  V30 253 H -1.2767 4.9801 -5.3263 0
M  V30 254 H -3.5840 5.7782 -5.5497 0
M  V30 255 H -4.7712 1.9333 -7.0041 0
M  V30 256 H -2.5018 1.1516 -6.8340 0
M  V30 257 H -1.5299 0.7366 -4.4379 0
M  V30 258 H -1.3554 -1.7052 -4.7589 0
M  V30 259 H -2.0448 -1.6496 -7.6895 0
M  V30 260 H -4.2910 -2.5419 -7.9704 0
M  V30 261 C 5.6218 -6.4594 3.6570 0
M  V30 262 C 6.0708 -5.8965 2.4534 0
M  V30 263 C 5.3001 -5.9849 1.3216 0
M  V30 264 C 4.0746 -6.6697 1.3406 0
M  V30 265 N 3.3623 -6.8123 0.1514 0
M  V30 266 C 4.0968 -7.0150 -1.0084 0
M  V30 267 C 5.3008 -7.7385 -0.9548 0
M  V30 268 C 6.1717 -7.7434 -2.0144 0
M  V30 269 C 5.8663 -7.0214 -3.1819 0
M  V30 270 C 4.5749 -6.4852 -3.2982 0
M  V30 271 C 3.7043 -6.4630 -2.2340 0
M  V30 272 C 1.9566 -6.7659 0.1392 0
M  V30 273 C 1.2343 -7.5953 -0.7194 0
M  V30 274 C -0.1447 -7.5658 -0.7144 0
M  V30 275 C -0.8270 -6.7158 0.1563 0
M  V30 276 N -2.2397 -6.7269 0.1928 0
M  V30 277 C -2.9028 -6.8848 -1.0383 0
M  V30 278 C -2.6234 -6.0001 -2.0841 0
M  V30 279 C -3.2078 -6.1785 -3.3211 0
M  V30 280 C -4.0141 -7.2950 -3.5541 0
M  V30 281 C -4.3150 -8.1648 -2.5036 0
M  V30 282 C -3.7952 -7.9395 -1.2461 0
M  V30 283 C -2.9158 -6.8710 1.3907 0
M  V30 284 C -4.2537 -6.4588 1.4986 0
M  V30 285 C -4.9343 -6.5784 2.6885 0
M  V30 286 C -4.3187 -7.1578 3.8038 0
M  V30 287 C -2.9764 -7.5518 3.7030 0
M  V30 288 C -2.2808 -7.3870 2.5295 0
M  V30 289 C -0.1058 -5.8608 0.9910 0
M  V30 290 C 1.2740 -5.8841 0.9811 0
M  V30 291 C 3.5989 -7.1784 2.5536 0
M  V30 292 C 4.3613 -7.0659 3.6952 0
M  V30 293 H 6.9932 -5.3397 2.4335 0
M  V30 294 H 5.6401 -5.5196 0.4106 0
M  V30 295 H 5.5513 -8.2931 -0.0639 0
M  V30 296 H 7.0757 -8.3267 -1.9456 0
M  V30 297 H 4.2872 -6.0411 -4.2356 0
M  V30 298 H 2.7474 -5.9758 -2.3295 0
M  V30 299 H 1.7534 -8.2877 -1.3631 0
M  V30 300 H -0.6944 -8.2315 -1.3600 0
M  V30 301 H -1.9506 -5.1743 -1.9169 0
M  V30 302 H -3.0173 -5.4953 -4.1324 0
M  V30 303 H -4.9739 -9.0020 -2.6763 0
M  V30 304 H -4.0394 -8.6122 -0.4387 0
M  V30 305 H -4.7519 -6.0404 0.6398 0
M  V30 306 H -5.9638 -6.2705 2.7654 0
M  V30 307 H -2.4705 -7.9540 4.5662 0
M  V30 308 H -1.2498 -7.6968 2.4811 0
M  V30 309 H -0.6326 -5.1791 1.6389 0
M  V30 310 H 1.8292 -5.2147 1.6177 0
M  V30 311 H 2.6527 -7.6931 2.5872 0
M  V30 312 H 4.0185 -7.4947 4.6220 0
M  V30 313 Zn 5.6675 -6.1058 6.7738 0 CHG=2
M  V30 314 C 5.0957 -10.8485 7.7015 0
M  V30 315 C 4.0471 -9.9447 7.6533 0
M  V30 316 C 4.3204 -8.6120 7.3443 0
M  V30 317 H 3.0375 -10.2653 7.8561 0
M  V30 318 N 5.5672 -8.1813 7.0863 0
M  V30 319 C 3.2802 -7.6145 7.2958 0
M  V30 320 C 6.5618 -9.0516 7.1261 0
M  V30 321 C 6.3789 -10.3941 7.4300 0
M  V30 322 H 7.5492 -8.6732 6.9121 0
M  V30 323 H 7.2221 -11.0652 7.4584 0
M  V30 324 H 4.9218 -11.8852 7.9456 0
M  V30 325 N 3.5419 -6.4125 6.9199 0
M  V30 326 H 2.2798 -7.9307 7.5750 0
M  V30 327 C 4.5906 -4.4242 11.1976 0
M  V30 328 C 4.8525 -3.6196 10.1019 0
M  V30 329 C 5.2115 -4.2196 8.8946 0
M  V30 330 H 4.7836 -2.5465 10.1788 0
M  V30 331 N 5.2912 -5.5548 8.7620 0
M  V30 332 C 5.5418 -3.4489 7.7263 0
M  V30 333 C 5.0512 -6.3175 9.8166 0
M  V30 334 C 4.7004 -5.8012 11.0555 0
M  V30 335 H 5.1477 -7.3823 9.6730 0
M  V30 336 H 4.5243 -6.4644 11.8869 0
M  V30 337 H 4.3143 -3.9962 12.1487 0
M  V30 338 N 5.7142 -4.0029 6.5738 0
M  V30 339 H 5.6380 -2.3741 7.8532 0
M  V30 340 C 10.5145 -6.1574 7.1571 0
M  V30 341 C 9.8228 -6.3016 5.9660 0
M  V30 342 C 8.4294 -6.2273 5.9822 0
M  V30 343 H 10.3517 -6.4759 5.0424 0
M  V30 344 N 7.7416 -6.0116 7.1169 0
M  V30 345 C 7.6467 -6.3879 4.7834 0
M  V30 346 C 8.4099 -5.8692 8.2492 0
M  V30 347 C 9.7944 -5.9342 8.3229 0
M  V30 348 H 7.8228 -5.6973 9.1377 0
M  V30 349 H 10.2957 -5.8170 9.2701 0
M  V30 350 H 11.5918 -6.2175 7.1810 0
M  V30 351 N 6.3608 -6.3684 4.8280 0
M  V30 352 H 8.1917 -6.5493 3.8583 0
M  V30 353 Zn -6.5294 -6.0843 5.9470 0 CHG=2
M  V30 354 C -10.1805 -4.4358 8.8167 0
M  V30 355 C -8.9062 -3.9014 8.7741 0
M  V30 356 C -7.9710 -4.4415 7.8865 0
M  V30 357 H -8.6327 -3.0857 9.4244 0
M  V30 358 N -8.2779 -5.4532 7.0563 0
M  V30 359 C -6.6237 -3.9452 7.8447 0
M  V30 360 C -9.4970 -5.9668 7.1169 0
M  V30 361 C -10.4809 -5.4979 7.9735 0
M  V30 362 H -9.7109 -6.7969 6.4633 0
M  V30 363 H -11.4565 -5.9563 7.9820 0
M  V30 364 H -10.9247 -4.0462 9.4940 0
M  V30 365 N -5.7282 -4.4589 7.0723 0
M  V30 366 H -6.4035 -3.1316 8.5278 0
M  V30 367 C -5.8937 -9.8710 8.9334 0
M  V30 368 C -5.2830 -9.7485 7.6979 0
M  V30 369 C -5.4589 -8.5687 6.9708 0
M  V30 370 H -4.6851 -10.5532 7.2993 0
M  V30 371 N -6.2061 -7.5515 7.4318 0
M  V30 372 C -4.8329 -8.3799 5.6883 0
M  V30 373 C -6.7685 -7.6691 8.6235 0
M  V30 374 C -6.6434 -8.8041 9.4118 0
M  V30 375 H -7.3431 -6.8288 8.9796 0
M  V30 376 H -7.1235 -8.8526 10.3757 0
M  V30 377 H -5.7864 -10.7719 9.5178 0
M  V30 378 N -5.0373 -7.3198 4.9854 0
M  V30 379 H -4.1842 -9.1805 5.3426 0
M  V30 380 C -10.2247 -7.9068 3.3635 0
M  V30 381 C -9.8128 -6.5839 3.3009 0
M  V30 382 C -8.6638 -6.2069 3.9919 0
M  V30 383 H -10.3738 -5.8596 2.7318 0
M  V30 384 N -7.9426 -7.0857 4.7081 0
M  V30 385 C -8.1393 -4.8600 3.9470 0
M  V30 386 C -8.3302 -8.3485 4.7509 0
M  V30 387 C -9.4662 -8.8087 4.0960 0
M  V30 388 H -7.7178 -9.0228 5.3296 0
M  V30 389 H -9.7505 -9.8463 4.1662 0
M  V30 390 H -11.1178 -8.2320 2.8526 0
M  V30 391 N -7.0118 -4.5981 4.4946 0
M  V30 392 H -8.6964 -4.1173 3.3816 0
M  V30 393 Zn 5.7692 6.1018 -6.5583 0 CHG=2
M  V30 394 C 4.7284 4.6475 -11.0850 0
M  V30 395 C 4.8214 3.7955 -9.9965 0
M  V30 396 C 5.1689 4.3247 -8.7539 0
M  V30 397 H 4.6321 2.7401 -10.1103 0
M  V30 398 N 5.4008 5.6368 -8.5792 0
M  V30 399 C 5.3308 3.4887 -7.5903 0
M  V30 400 C 5.3260 6.4422 -9.6258 0
M  V30 401 C 4.9939 5.9968 -10.8983 0
M  V30 402 H 5.5418 7.4848 -9.4520 0
M  V30 403 H 4.9491 6.6939 -11.7195 0
M  V30 404 H 4.4630 4.2748 -12.0621 0
M  V30 405 N 5.6362 3.9814 -6.4422 0
M  V30 406 H 5.2254 2.4170 -7.7409 0
M  V30 407 C 10.5524 6.7127 -6.8654 0
M  V30 408 C 9.8182 6.8706 -5.7021 0
M  V30 409 C 8.4555 6.5661 -5.7189 0
M  V30 410 H 10.2882 7.2305 -4.8004 0
M  V30 411 N 7.8402 6.1199 -6.8291 0
M  V30 412 C 7.6311 6.6919 -4.5441 0
M  V30 413 C 8.5512 5.9610 -7.9328 0
M  V30 414 C 9.9086 6.2423 -8.0028 0
M  V30 415 H 8.0237 5.5922 -8.7987 0
M  V30 416 H 10.4491 6.0989 -8.9244 0
M  V30 417 H 11.6055 6.9470 -6.8890 0
M  V30 418 N 6.3608 6.4758 -4.6007 0
M  V30 419 H 8.1272 6.9694 -3.6186 0
M  V30 420 C 5.0087 10.8216 -7.6095 0
M  V30 421 C 3.9989 9.8829 -7.4750 0
M  V30 422 C 4.3374 8.5743 -7.1310 0
M  V30 423 H 2.9691 10.1593 -7.6372 0
M  V30 424 N 5.6092 8.1956 -6.9211 0
M  V30 425 C 3.3349 7.5511 -6.9746 0
M  V30 426 C 6.5657 9.1000 -7.0431 0
M  V30 427 C 6.3190 10.4232 -7.3858 0
M  V30 428 H 7.5770 8.7691 -6.8661 0
M  V30 429 H 7.1355 11.1208 -7.4799 0
M  V30 430 H 4.7851 11.8414 -7.8825 0
M  V30 431 N 3.6527 6.3740 -6.5678 0
M  V30 432 H 2.3062 7.8322 -7.1806 0
M  V30 433 Zn -6.4822 6.0805 -5.3354 0 CHG=2
M  V30 434 C -5.9030 9.8705 -8.3310 0
M  V30 435 C -5.2883 9.7570 -7.0962 0
M  V30 436 C -5.4436 8.5737 -6.3704 0
M  V30 437 H -4.7041 10.5716 -6.6974 0
M  V30 438 N -6.1733 7.5439 -6.8321 0
M  V30 439 C -4.8123 8.3913 -5.0891 0
M  V30 440 C -6.7376 7.6526 -8.0236 0
M  V30 441 C -6.6333 8.7909 -8.8106 0
M  V30 442 H -7.2962 6.8020 -8.3807 0
M  V30 443 H -7.1145 8.8322 -9.7743 0
M  V30 444 H -5.8127 10.7744 -8.9137 0
M  V30 445 N -5.0068 7.3284 -4.3883 0
M  V30 446 H -4.1679 9.1959 -4.7448 0
M  V30 447 C -10.2048 7.9336 -2.8075 0
M  V30 448 C -9.7902 6.6129 -2.7209 0
M  V30 449 C -8.6391 6.2260 -3.4030 0
M  V30 450 H -10.3506 5.8979 -2.1395 0
M  V30 451 N -7.9178 7.0932 -4.1331 0
M  V30 452 C -8.1145 4.8804 -3.3344 0
M  V30 453 C -8.3094 8.3537 -4.2002 0
M  V30 454 C -9.4476 8.8234 -3.5560 0
M  V30 455 H -7.6989 9.0193 -4.7908 0
M  V30 456 H -9.7344 9.8587 -3.6465 0
M  V30 457 H -11.0987 8.2664 -2.3029 0
M  V30 458 N -6.9830 4.6104 -3.8698 0
M  V30 459 H -8.6768 4.1456 -2.7639 0
M  V30 460 C -10.0444 4.3271 -8.2381 0
M  V30 461 C -8.7609 3.8180 -8.1668 0
M  V30 462 C -7.8527 4.3863 -7.2690 0
M  V30 463 H -8.4600 3.0004 -8.8028 0
M  V30 464 N -8.1941 5.4019 -6.4569 0
M  V30 465 C -6.4983 3.9139 -7.1901 0
M  V30 466 C -9.4217 5.8907 -6.5437 0
M  V30 467 C -10.3809 5.3921 -7.4119 0
M  V30 468 H -9.6624 6.7240 -5.9040 0
M  V30 469 H -11.3650 5.8310 -7.4425 0
M  V30 470 H -10.7690 3.9152 -8.9237 0
M  V30 471 N -5.6282 4.4559 -6.4077 0
M  V30 472 H -6.2488 3.0905 -7.8512 0
M  V30 473 Zn 6.4779 6.3120 6.5391 0 CHG=2
M  V30 474 C 5.4522 11.0803 6.5689 0
M  V30 475 C 4.4966 10.0802 6.6098 0
M  V30 476 C 4.9119 8.7473 6.6428 0
M  V30 477 H 3.4467 10.3259 6.6216 0
M  V30 478 N 6.2109 8.4080 6.6176 0
M  V30 479 C 3.9631 7.6705 6.7509 0
M  V30 480 C 7.1186 9.3701 6.5882 0
M  V30 481 C 6.7928 10.7186 6.5667 0
M  V30 482 H 8.1532 9.0641 6.5908 0
M  V30 483 H 7.5713 11.4642 6.5542 0
M  V30 484 H 5.1675 12.1209 6.5486 0
M  V30 485 N 4.3132 6.4316 6.6942 0
M  V30 486 H 2.9253 7.9593 6.8957 0
M  V30 487 C 6.3932 5.4436 11.3160 0
M  V30 488 C 6.4335 4.4594 10.3435 0
M  V30 489 C 6.4363 4.8380 8.9994 0
M  V30 490 H 6.4688 3.4177 10.6196 0
M  V30 491 N 6.3924 6.1291 8.6269 0
M  V30 492 C 6.4955 3.8685 7.9377 0
M  V30 493 C 6.3554 7.0640 9.5612 0
M  V30 494 C 6.3537 6.7738 10.9184 0
M  V30 495 H 6.3273 8.0874 9.2205 0
M  V30 496 H 6.3261 7.5708 11.6439 0
M  V30 497 H 6.3949 5.1878 12.3644 0
M  V30 498 N 6.5316 4.2260 6.6986 0
M  V30 499 H 6.5354 2.8232 8.2304 0
M  V30 500 C 11.2946 7.0405 6.2887 0
M  V30 501 C 10.4287 7.2068 5.2212 0
M  V30 502 C 9.0772 6.9017 5.3947 0
M  V30 503 H 10.7908 7.5720 4.2730 0
M  V30 504 N 8.5945 6.4457 6.5634 0
M  V30 505 C 8.1285 7.0414 4.3189 0
M  V30 506 C 9.4307 6.2774 7.5736 0
M  V30 507 C 10.7870 6.5611 7.4890 0
M  V30 508 H 9.0113 5.9021 8.4940 0
M  V30 509 H 11.4291 6.4141 8.3423 0
M  V30 510 H 12.3430 7.2766 6.1910 0
M  V30 511 N 6.8962 6.7063 4.4808 0
M  V30 512 H 8.5171 7.3960 3.3690 0
M  V30 513 Zn -5.9660 6.5187 6.5274 0 CHG=2
M  V30 514 C -9.5175 5.3684 9.6405 0
M  V30 515 C -8.2068 4.9397 9.7652 0
M  V30 516 C -7.3016 5.2338 8.7433 0
M  V30 517 H -7.8876 4.3955 10.6404 0
M  V30 518 N -7.6641 5.9191 7.6453 0
M  V30 519 C -5.9283 4.7960 8.7975 0
M  V30 520 C -8.9233 6.3035 7.5234 0
M  V30 521 C -9.8872 6.0539 8.4908 0
M  V30 522 H -9.1839 6.8306 6.6190 0
M  V30 523 H -10.9018 6.3899 8.3499 0
M  V30 524 H -10.2394 5.1685 10.4173 0
M  V30 525 N -5.0946 5.1327 7.8769 0
M  V30 526 H -5.6442 4.1732 9.6413 0
M  V30 527 C -4.8983 10.5564 9.0384 0
M  V30 528 C -4.4528 10.3135 7.7492 0
M  V30 529 C -4.7221 9.0758 7.1664 0
M  V30 530 H -3.9089 11.0694 7.2048 0
M  V30 531 N -5.3993 8.1137 7.8135 0
M  V30 532 C -4.2672 8.7489 5.8370 0
M  V30 533 C -5.8075 8.3476 9.0491 0
M  V30 534 C -5.5833 9.5505 9.7056 0
M  V30 535 H -6.3398 7.5507 9.5454 0
M  V30 536 H -5.9429 9.6972 10.7114 0
M  V30 537 H -4.7168 11.5064 9.5170 0
M  V30 538 N -4.4150 7.5648 5.3706 0
M  V30 539 H -3.7608 9.5308 5.2769 0
M  V30 540 C -8.5980 9.4717 3.6756 0
M  V30 541 C -8.1045 8.2393 3.2893 0
M  V30 542 C -7.3983 7.4719 4.2185 0
M  V30 543 H -8.2631 7.8716 2.2883 0
M  V30 544 N -7.1718 7.9054 5.4705 0
M  V30 545 C -6.8957 6.1657 3.8983 0
M  V30 546 C -7.6691 9.0760 5.8392 0
M  V30 547 C -8.3843 9.8964 4.9812 0
M  V30 548 H -7.4976 9.3749 6.8614 0
M  V30 549 H -8.7660 10.8417 5.3320 0
M  V30 550 H -9.1462 10.0946 2.9859 0
M  V30 551 N -6.2797 5.4407 4.7730 0
M  V30 552 H -7.0988 5.7974 2.8975 0
M  V30 553 Zn 6.4719 -6.2431 -6.2399 0 CHG=2
M  V30 554 C 5.9956 -5.0526 -10.9178 0
M  V30 555 C 6.0440 -4.1412 -9.8783 0
M  V30 556 C 6.2815 -4.6053 -8.5823 0
M  V30 557 H 5.9076 -3.0882 -10.0654 0
M  V30 558 N 6.4390 -5.9134 -8.3167 0
M  V30 559 C 6.4002 -3.7057 -7.4685 0
M  V30 560 C 6.4065 -6.7771 -9.3177 0
M  V30 561 C 6.1924 -6.3982 -10.6349 0
M  V30 562 H 6.5629 -7.8147 -9.0666 0
M  V30 563 H 6.1845 -7.1399 -11.4174 0
M  V30 564 H 5.8189 -4.7305 -11.9324 0
M  V30 565 N 6.5405 -4.1251 -6.2527 0
M  V30 566 H 6.3665 -2.6453 -7.6998 0
M  V30 567 C 11.2893 -6.4506 -5.7481 0
M  V30 568 C 10.3925 -6.6999 -4.7241 0
M  V30 569 C 9.0234 -6.5908 -4.9821 0
M  V30 570 H 10.7444 -6.9837 -3.7448 0
M  V30 571 N 8.5579 -6.2373 -6.1912 0
M  V30 572 C 8.0449 -6.8609 -3.9625 0
M  V30 573 C 9.4209 -5.9922 -7.1627 0
M  V30 574 C 10.7948 -6.0883 -6.9945 0
M  V30 575 H 9.0054 -5.7107 -8.1180 0
M  V30 576 H 11.4607 -5.8883 -7.8183 0
M  V30 577 H 12.3526 -6.5371 -5.5846 0
M  V30 578 N 6.7785 -6.7592 -4.1916 0
M  V30 579 H 8.4378 -7.1396 -2.9900 0
M  V30 580 C 5.7229 -10.9875 -7.0111 0
M  V30 581 C 4.7245 -10.0305 -7.0575 0
M  V30 582 C 5.0544 -8.6957 -6.8107 0
M  V30 583 H 3.7086 -10.3098 -7.2877 0
M  V30 584 N 6.3093 -8.3189 -6.5184 0
M  V30 585 C 4.0644 -7.6558 -6.8805 0
M  V30 586 C 7.2572 -9.2397 -6.4705 0
M  V30 587 C 7.0181 -10.5848 -6.7123 0
M  V30 588 H 8.2540 -8.8987 -6.2370 0
M  V30 589 H 7.8263 -11.2972 -6.6722 0
M  V30 590 H 5.5046 -12.0263 -7.2059 0
M  V30 591 N 4.3475 -6.4238 -6.6235 0
M  V30 592 H 3.0608 -7.9669 -7.1537 0
M  V30 593 Zn -5.9969 -6.4382 -5.9986 0 CHG=2
M  V30 594 C -8.7183 -9.4043 -3.2504 0
M  V30 595 C -8.2072 -8.1910 -2.8281 0
M  V30 596 C -7.4729 -7.4161 -3.7287 0
M  V30 597 H -8.3742 -7.8436 -1.8212 0
M  V30 598 N -7.2366 -7.8249 -4.9872 0
M  V30 599 C -6.9506 -6.1271 -3.3719 0
M  V30 600 C -7.7485 -8.9778 -5.3899 0
M  V30 601 C -8.4919 -9.8038 -4.5619 0
M  V30 602 H -7.5658 -9.2570 -6.4157 0
M  V30 603 H -8.8850 -10.7340 -4.9391 0
M  V30 604 H -9.2895 -10.0318 -2.5839 0
M  V30 605 N -6.3174 -5.3920 -4.2254 0
M  V30 606 H -7.1541 -5.7797 -2.3638 0
M  V30 607 C -9.4721 -5.1550 -9.1453 0
M  V30 608 C -8.1538 -4.7395 -9.2316 0
M  V30 609 C -7.2729 -5.0758 -8.2020 0
M  V30 610 H -7.8111 -4.1730 -10.0835 0
M  V30 611 N -7.6648 -5.7898 -7.1327 0
M  V30 612 C -5.8937 -4.6527 -8.2138 0
M  V30 613 C -8.9304 -6.1625 -7.0470 0
M  V30 614 C -9.8723 -5.8701 -8.0244 0
M  V30 615 H -9.2149 -6.7141 -6.1648 0
M  V30 616 H -10.8934 -6.1970 -7.9126 0
M  V30 617 H -10.1764 -4.9222 -9.9290 0
M  V30 618 N -5.0833 -5.0261 -7.2869 0
M  V30 619 H -5.5841 -4.0063 -9.0307 0
M  V30 620 C -4.9385 -10.4232 -8.6010 0
M  V30 621 C -4.5123 -10.2188 -7.2984 0
M  V30 622 C -4.7798 -8.9946 -6.6875 0
M  V30 623 H -3.9842 -10.9938 -6.7654 0
M  V30 624 N -5.4363 -8.0086 -7.3197 0
M  V30 625 C -4.3436 -8.7069 -5.3424 0
M  V30 626 C -5.8274 -8.2064 -8.5672 0
M  V30 627 C -5.6041 -9.3938 -9.2516 0
M  V30 628 H -6.3441 -7.3915 -9.0505 0
M  V30 629 H -5.9487 -9.5106 -10.2664 0
M  V30 630 H -4.7569 -11.3619 -9.1013 0
M  V30 631 N -4.4806 -7.5316 -4.8530 0
M  V30 632 H -3.8613 -9.5098 -4.7908 0
M  V30 END ATOM
M  V30 BEGIN BOND
M  V30 1 2 1 2
M  V30 2 1 2 3
M  V30 3 2 3 4
M  V30 4 1 4 5
M  V30 5 1 5 6
M  V30 6 2 6 7
M  V30 7 1 7 8
M  V30 8 2 8 9
M  V30 9 1 9 10
M  V30 10 2 10 11
M  V30 11 1 5 12
M  V30 12 2 12 13
M  V30 13 1 13 14
M  V30 14 2 14 15
M  V30 15 1 15 16
M  V30 16 1 16 17
M  V30 17 2 17 18
M  V30 18 1 18 19
M  V30 19 2 19 20
M  V30 20 1 20 21
M  V30 21 2 21 22
M  V30 22 1 16 23
M  V30 23 2 23 24
M  V30 24 1 24 25
M  V30 25 2 25 26
M  V30 26 1 26 27
M  V30 27 2 27 28
M  V30 28 1 15 29
M  V30 29 2 29 30
M  V30 30 1 4 31
M  V30 31 2 31 32
M  V30 32 1 32 1
M  V30 33 1 11 6
M  V30 34 1 30 12
M  V30 35 1 22 17
M  V30 36 1 28 23
M  V30 37 1 2 33
M  V30 38 1 3 34
M  V30 39 1 7 35
M  V30 40 1 8 36
M  V30 41 1 10 37
M  V30 42 1 11 38
M  V30 43 1 13 39
M  V30 44 1 14 40
M  V30 45 1 18 41
M  V30 46 1 19 42
M  V30 47 1 21 43
M  V30 48 1 22 44
M  V30 49 1 24 45
M  V30 50 1 25 46
M  V30 51 1 27 47
M  V30 52 1 28 48
M  V30 53 1 29 49
M  V30 54 1 30 50
M  V30 55 1 31 51
M  V30 56 1 32 52
M  V30 57 2 53 54
M  V30 58 1 54 55
M  V30 59 2 55 56
M  V30 60 1 56 57
M  V30 61 1 57 58
M  V30 62 2 58 59
M  V30 63 1 59 60
M  V30 64 2 60 61
M  V30 65 1 61 62
M  V30 66 2 62 63
M  V30 67 1 57 64
M  V30 68 2 64 65
M  V30 69 1 65 66
M  V30 70 2 66 67
M  V30 71 1 67 68
M  V30 72 1 68 69
M  V30 73 2 69 70
M  V30 74 1 70 71
M  V30 75 2 71 72
M  V30 76 1 72 73
M  V30 77 2 73 74
M  V30 78 1 68 75
M  V30 79 2 75 76
M  V30 80 1 76 77
M  V30 81 2 77 78
M  V30 82 1 78 79
M  V30 83 2 79 80
M  V30 84 1 67 81
M  V30 85 2 81 82
M  V30 86 1 56 83
M  V30 87 2 83 84
M  V30 88 1 84 53
M  V30 89 1 63 58
M  V30 90 1 82 64
M  V30 91 1 74 69
M  V30 92 1 80 75
M  V30 93 1 54 85
M  V30 94 1 55 86
M  V30 95 1 59 87
M  V30 96 1 60 88
M  V30 97 1 62 89
M  V30 98 1 63 90
M  V30 99 1 65 91
M  V30 100 1 66 92
M  V30 101 1 70 93
M  V30 102 1 71 94
M  V30 103 1 73 95
M  V30 104 1 74 96
M  V30 105 1 76 97
M  V30 106 1 77 98
M  V30 107 1 79 99
M  V30 108 1 80 100
M  V30 109 1 81 101
M  V30 110 1 82 102
M  V30 111 1 83 103
M  V30 112 1 84 104
M  V30 113 2 105 106
M  V30 114 1 106 107
M  V30 115 2 107 108
M  V30 116 1 108 109
M  V30 117 1 109 110
M  V30 118 2 110 111
M  V30 119 1 111 112
M  V30 120 2 112 113
M  V30 121 1 113 114
M  V30 122 2 114 115
M  V30 123 1 109 116
M  V30 124 2 116 117
M  V30 125 1 117 118
M  V30 126 2 118 119
M  V30 127 1 119 120
M  V30 128 1 120 121
M  V30 129 2 121 122
M  V30 130 1 122 123
M  V30 131 2 123 124
M  V30 132 1 124 125
M  V30 133 2 125 126
M  V30 134 1 120 127
M  V30 135 2 127 128
M  V30 136 1 128 129
M  V30 137 2 129 130
M  V30 138 1 130 131
M  V30 139 2 131 132
M  V30 140 1 119 133
M  V30 141 2 133 134
M  V30 142 1 108 135
M  V30 143 2 135 136
M  V30 144 1 136 105
M  V30 145 1 115 110
M  V30 146 1 134 116
M  V30 147 1 126 121
M  V30 148 1 132 127
M  V30 149 1 106 137
M  V30 150 1 107 138
M  V30 151 1 111 139
M  V30 152 1 112 140
M  V30 153 1 114 141
M  V30 154 1 115 142
M  V30 155 1 117 143
M  V30 156 1 118 144
M  V30 157 1 122 145
M  V30 158 1 123 146
M  V30 159 1 125 147
M  V30 160 1 126 148
M  V30 161 1 128 149
M  V30 162 1 129 150
M  V30 163 1 131 151
M  V30 164 1 132 152
M  V30 165 1 133 153
M  V30 166 1 134 154
M  V30 167 1 135 155
M  V30 168 1 136 156
M  V30 169 2 157 158
M  V30 170 1 158 159
M  V30 171 2 159 160
M  V30 172 1 160 161
M  V30 173 1 161 162
M  V30 174 2 162 163
M  V30 175 1 163 164
M  V30 176 2 164 165
M  V30 177 1 165 166
M  V30 178 2 166 167
M  V30 179 1 161 168
M  V30 180 2 168 169
M  V30 181 1 169 170
M  V30 182 2 170 171
M  V30 183 1 171 172
M  V30 184 1 172 173
M  V30 185 2 173 174
M  V30 186 1 174 175
M  V30 187 2 175 176
M  V30 188 1 176 177
M  V30 189 2 177 178
M  V30 190 1 172 179
M  V30 191 2 179 180
M  V30 192 1 180 181
M  V30 193 2 181 182
M  V30 194 1 182 183
M  V30 195 2 183 184
M  V30 196 1 171 185
M  V30 197 2 185 186
M  V30 198 1 160 187
M  V30 199 2 187 188
M  V30 200 1 188 157
M  V30 201 1 167 162
M  V30 202 1 186 168
M  V30 203 1 178 173
M  V30 204 1 184 179
M  V30 205 1 158 189
M  V30 206 1 159 190
M  V30 207 1 163 191
M  V30 208 1 164 192
M  V30 209 1 166 193
M  V30 210 1 167 194
M  V30 211 1 169 195
M  V30 212 1 170 196
M  V30 213 1 174 197
M  V30 214 1 175 198
M  V30 215 1 177 199
M  V30 216 1 178 200
M  V30 217 1 180 201
M  V30 218 1 181 202
M  V30 219 1 183 203
M  V30 220 1 184 204
M  V30 221 1 185 205
M  V30 222 1 186 206
M  V30 223 1 187 207
M  V30 224 1 188 208
M  V30 225 2 209 210
M  V30 226 1 210 211
M  V30 227 2 211 212
M  V30 228 1 212 213
M  V30 229 1 213 214
M  V30 230 2 214 215
M  V30 231 1 215 216
M  V30 232 2 216 217
M  V30 233 1 217 218
M  V30 234 2 218 219
M  V30 235 1 213 220
M  V30 236 2 220 221
M  V30 237 1 221 222
M  V30 238 2 222 223
M  V30 239 1 223 224
M  V30 240 1 224 225
M  V30 241 2 225 226
M  V30 242 1 226 227
M  V30 243 2 227 228
M  V30 244 1 228 229
M  V30 245 2 229 230
M  V30 246 1 224 231
M  V30 247 2 231 232
M  V30 248 1 232 233
M  V30 249 2 233 234
M  V30 250 1 234 235
M  V30 251 2 235 236
M  V30 252 1 223 237
M  V30 253 2 237 238
M  V30 254 1 212 239
M  V30 255 2 239 240
M  V30 256 1 240 209
M  V30 257 1 219 214
M  V30 258 1 238 220
M  V30 259 1 230 225
M  V30 260 1 236 231
M  V30 261 1 210 241
M  V30 262 1 211 242
M  V30 263 1 215 243
M  V30 264 1 216 244
M  V30 265 1 218 245
M  V30 266 1 219 246
M  V30 267 1 221 247
M  V30 268 1 222 248
M  V30 269 1 226 249
M  V30 270 1 227 250
M  V30 271 1 229 251
M  V30 272 1 230 252
M  V30 273 1 232 253
M  V30 274 1 233 254
M  V30 275 1 235 255
M  V30 276 1 236 256
M  V30 277 1 237 257
M  V30 278 1 238 258
M  V30 279 1 239 259
M  V30 280 1 240 260
M  V30 281 2 261 262
M  V30 282 1 262 263
M  V30 283 2 263 264
M  V30 284 1 264 265
M  V30 285 1 265 266
M  V30 286 2 266 267
M  V30 287 1 267 268
M  V30 288 2 268 269
M  V30 289 1 269 270
M  V30 290 2 270 271
M  V30 291 1 265 272
M  V30 292 2 272 273
M  V30 293 1 273 274
M  V30 294 2 274 275
M  V30 295 1 275 276
M  V30 296 1 276 277
M  V30 297 2 277 278
M  V30 298 1 278 279
M  V30 299 2 279 280
M  V30 300 1 280 281
M  V30 301 2 281 282
M  V30 302 1 276 283
M  V30 303 2 283 284
M  V30 304 1 284 285
M  V30 305 2 285 286
M  V30 306 1 286 287
M  V30 307 2 287 288
M  V30 308 1 275 289
M  V30 309 2 289 290
M  V30 310 1 264 291
M  V30 311 2 291 292
M  V30 312 1 292 261
M  V30 313 1 271 266
M  V30 314 1 290 272
M  V30 315 1 282 277
M  V30 316 1 288 283
M  V30 317 1 262 293
M  V30 318 1 263 294
M  V30 319 1 267 295
M  V30 320 1 268 296
M  V30 321 1 270 297
M  V30 322 1 271 298
M  V30 323 1 273 299
M  V30 324 1 274 300
M  V30 325 1 278 301
M  V30 326 1 279 302
M  V30 327 1 281 303
M  V30 328 1 282 304
M  V30 329 1 284 305
M  V30 330 1 285 306
M  V30 331 1 287 307
M  V30 332 1 288 308
M  V30 333 1 289 309
M  V30 334 1 290 310
M  V30 335 1 291 311
M  V30 336 1 292 312
M  V30 337 1 314 324
M  V30 338 2 314 321
M  V30 339 1 315 314
M  V30 340 2 316 315
M  V30 341 1 316 318
M  V30 342 1 317 315
M  V30 343 2 318 320
M  V30 344 1 319 316
M  V30 345 1 320 321
M  V30 346 1 320 322
M  V30 347 1 321 323
M  V30 348 2 325 319
M  V30 349 1 326 319
M  V30 350 1 327 337
M  V30 351 2 327 334
M  V30 352 1 328 327
M  V30 353 2 329 328
M  V30 354 1 329 331
M  V30 355 1 330 328
M  V30 356 2 331 333
M  V30 357 1 332 329
M  V30 358 1 333 334
M  V30 359 1 333 335
M  V30 360 1 334 336
M  V30 361 2 338 332
M  V30 362 1 339 332
M  V30 363 1 340 350
M  V30 364 2 340 347
M  V30 365 1 341 340
M  V30 366 2 342 341
M  V30 367 1 342 344
M  V30 368 1 343 341
M  V30 369 2 344 346
M  V30 370 1 345 342
M  V30 371 1 346 347
M  V30 372 1 346 348
M  V30 373 1 347 349
M  V30 374 2 351 345
M  V30 375 1 352 345
M  V30 376 9 325 313
M  V30 377 9 318 313
M  V30 378 9 338 313
M  V30 379 9 331 313
M  V30 380 9 351 313
M  V30 381 9 344 313
M  V30 382 1 354 364
M  V30 383 2 354 361
M  V30 384 1 355 354
M  V30 385 2 356 355
M  V30 386 1 356 358
M  V30 387 1 357 355
M  V30 388 2 358 360
M  V30 389 1 359 356
M  V30 390 1 360 361
M  V30 391 1 360 362
M  V30 392 1 361 363
M  V30 393 2 365 359
M  V30 394 1 366 359
M  V30 395 1 367 377
M  V30 396 2 367 374
M  V30 397 1 368 367
M  V30 398 2 369 368
M  V30 399 1 369 371
M  V30 400 1 370 368
M  V30 401 2 371 373
M  V30 402 1 372 369
M  V30 403 1 373 374
M  V30 404 1 373 375
M  V30 405 1 374 376
M  V30 406 2 378 372
M  V30 407 1 379 372
M  V30 408 1 380 390
M  V30 409 2 380 387
M  V30 410 1 381 380
M  V30 411 2 382 381
M  V30 412 1 382 384
M  V30 413 1 383 381
M  V30 414 2 384 386
M  V30 415 1 385 382
M  V30 416 1 386 387
M  V30 417 1 386 388
M  V30 418 1 387 389
M  V30 419 2 391 385
M  V30 420 1 392 385
M  V30 421 9 365 353
M  V30 422 9 358 353
M  V30 423 9 378 353
M  V30 424 9 371 353
M  V30 425 9 391 353
M  V30 426 9 384 353
M  V30 427 1 394 404
M  V30 428 2 394 401
M  V30 429 1 395 394
M  V30 430 2 396 395
M  V30 431 1 396 398
M  V30 432 1 397 395
M  V30 433 2 398 400
M  V30 434 1 399 396
M  V30 435 1 400 401
M  V30 436 1 400 402
M  V30 437 1 401 403
M  V30 438 2 405 399
M  V30 439 1 406 399
M  V30 440 1 407 417
M  V30 441 2 407 414
M  V30 442 1 408 407
M  V30 443 2 409 408
M  V30 444 1 409 411
M  V30 445 1 410 408
M  V30 446 2 411 413
M  V30 447 1 412 409
M  V30 448 1 413 414
M  V30 449 1 413 415
M  V30 450 1 414 416
M  V30 451 2 418 412
M  V30 452 1 419 412
M  V30 453 1 420 430
M  V30 454 2 420 427
M  V30 455 1 421 420
M  V30 456 2 422 421
M  V30 457 1 422 424
M  V30 458 1 423 421
M  V30 459 2 424 426
M  V30 460 1 425 422
M  V30 461 1 426 427
M  V30 462 1 426 428
M  V30 463 1 427 429
M  V30 464 2 431 425
M  V30 465 1 432 425
M  V30 466 9 405 393
M  V30 467 9 398 393
M  V30 468 9 418 393
M  V30 469 9 411 393
M  V30 470 9 431 393
M  V30 471 9 424 393
M  V30 472 1 434 444
M  V30 473 2 434 441
M  V30 474 1 435 434
M  V30 475 2 436 435
M  V30 476 1 436 438
M  V30 477 1 437 435
M  V30 478 2 438 440
M  V30 479 1 439 436
M  V30 480 1 440 441
M  V30 481 1 440 442
M  V30 482 1 441 443
M  V30 483 2 445 439
M  V30 484 1 446 439
M  V30 485 1 447 457
M  V30 486 2 447 454
M  V30 487 1 448 447
M  V30 488 2 449 448
M  V30 489 1 449 451
M  V30 490 1 450 448
M  V30 491 2 451 453
M  V30 492 1 452 449
M  V30 493 1 453 454
M  V30 494 1 453 455
M  V30 495 1 454 456
M  V30 496 2 458 452
M  V30 497 1 459 452
M  V30 498 1 460 470
M  V30 499 2 460 467
M  V30 500 1 461 460
M  V30 501 2 462 461
M  V30 502 1 462 464
M  V30 503 1 463 461
M  V30 504 2 464 466
M  V30 505 1 465 462
M  V30 506 1 466 467
M  V30 507 1 466 468
M  V30 508 1 467 469
M  V30 509 2 471 465
M  V30 510 1 472 465
M  V30 511 9 445 433
M  V30 512 9 438 433
M  V30 513 9 458 433
M  V30 514 9 451 433
M  V30 515 9 471 433
M  V30 516 9 464 433
M  V30 517 1 474 484
M  V30 518 2 474 481
M  V30 519 1 475 474
M  V30 520 2 476 475
M  V30 521 1 476 478
M  V30 522 1 477 475
M  V30 523 2 478 480
M  V30 524 1 479 476
M  V30 525 1 480 481
M  V30 526 1 480 482
M  V30 527 1 481 483
M  V30 528 2 485 479
M  V30 529 1 486 479
M  V30 530 1 487 497
M  V30 531 2 487 494
M  V30 532 1 488 487
M  V30 533 2 489 488
M  V30 534 1 489 491
M  V30 535 1 490 488
M  V30 536 2 491 493
M  V30 537 1 492 489
M  V30 538 1 493 494
M  V30 539 1 493 495
M  V30 540 1 494 496
M  V30 541 2 498 492
M  V30 542 1 499 492
M  V30 543 1 500 510
M  V30 544 2 500 507
M  V30 545 1 501 500
M  V30 546 2 502 501
M  V30 547 1 502 504
M  V30 548 1 503 501
M  V30 549 2 504 506
M  V30 550 1 505 502
M  V30 551 1 506 507
M  V30 552 1 506 508
M  V30 553 1 507 509
M  V30 554 2 511 505
M  V30 555 1 512 505
M  V30 556 9 485 473
M  V30 557 9 478 473
M  V30 558 9 511 473
M  V30 559 9 504 473
M  V30 560 9 498 473
M  V30 561 9 491 473
M  V30 562 1 514 524
M  V30 563 2 514 521
M  V30 564 1 515 514
M  V30 565 2 516 515
M  V30 566 1 516 518
M  V30 567 1 517 515
M  V30 568 2 518 520
M  V30 569 1 519 516
M  V30 570 1 520 521
M  V30 571 1 520 522
M  V30 572 1 521 523
M  V30 573 2 525 519
M  V30 574 1 526 519
M  V30 575 1 527 537
M  V30 576 2 527 534
M  V30 577 1 528 527
M  V30 578 2 529 528
M  V30 579 1 529 531
M  V30 580 1 530 528
M  V30 581 2 531 533
M  V30 582 1 532 529
M  V30 583 1 533 534
M  V30 584 1 533 535
M  V30 585 1 534 536
M  V30 586 2 538 532
M  V30 587 1 539 532
M  V30 588 1 540 550
M  V30 589 2 540 547
M  V30 590 1 541 540
M  V30 591 2 542 541
M  V30 592 1 542 544
M  V30 593 1 543 541
M  V30 594 2 544 546
M  V30 595 1 545 542
M  V30 596 1 546 547
M  V30 597 1 546 548
M  V30 598 1 547 549
M  V30 599 2 551 545
M  V30 600 1 552 545
M  V30 601 9 525 513
M  V30 602 9 518 513
M  V30 603 9 551 513
M  V30 604 9 544 513
M  V30 605 9 538 513
M  V30 606 9 531 513
M  V30 607 1 554 564
M  V30 608 2 554 561
M  V30 609 1 555 554
M  V30 610 2 556 555
M  V30 611 1 556 558
M  V30 612 1 557 555
M  V30 613 2 558 560
M  V30 614 1 559 556
M  V30 615 1 560 561
M  V30 616 1 560 562
M  V30 617 1 561 563
M  V30 618 2 565 559
M  V30 619 1 566 559
M  V30 620 1 567 577
M  V30 621 2 567 574
M  V30 622 1 568 567
M  V30 623 2 569 568
M  V30 624 1 569 571
M  V30 625 1 570 568
M  V30 626 2 571 573
M  V30 627 1 572 569
M  V30 628 1 573 574
M  V30 629 1 573 575
M  V30 630 1 574 576
M  V30 631 2 578 572
M  V30 632 1 579 572
M  V30 633 1 580 590
M  V30 634 2 580 587
M  V30 635 1 581 580
M  V30 636 2 582 581
M  V30 637 1 582 584
M  V30 638 1 583 581
M  V30 639 2 584 586
M  V30 640 1 585 582
M  V30 641 1 586 587
M  V30 642 1 586 588
M  V30 643 1 587 589
M  V30 644 2 591 585
M  V30 645 1 592 585
M  V30 646 9 565 553
M  V30 647 9 558 553
M  V30 648 9 591 553
M  V30 649 9 584 553
M  V30 650 9 578 553
M  V30 651 9 571 553
M  V30 652 1 594 604
M  V30 653 2 594 601
M  V30 654 1 595 594
M  V30 655 2 596 595
M  V30 656 1 596 598
M  V30 657 1 597 595
M  V30 658 2 598 600
M  V30 659 1 599 596
M  V30 660 1 600 601
M  V30 661 1 600 602
M  V30 662 1 601 603
M  V30 663 2 605 599
M  V30 664 1 606 599
M  V30 665 1 607 617
M  V30 666 2 607 614
M  V30 667 1 608 607
M  V30 668 2 609 608
M  V30 669 1 609 611
M  V30 670 1 610 608
M  V30 671 2 611 613
M  V30 672 1 612 609
M  V30 673 1 613 614
M  V30 674 1 613 615
M  V30 675 1 614 616
M  V30 676 2 618 612
M  V30 677 1 619 612
M  V30 678 1 620 630
M  V30 679 2 620 627
M  V30 680 1 621 620
M  V30 681 2 622 621
M  V30 682 1 622 624
M  V30 683 1 623 621
M  V30 684 2 624 626
M  V30 685 1 625 622
M  V30 686 1 626 627
M  V30 687 1 626 628
M  V30 688 1 627 629
M  V30 689 2 631 625
M  V30 690 1 632 625
M  V30 691 9 605 593
M  V30 692 9 598 593
M  V30 693 9 631 593
M  V30 694 9 624 593
M  V30 695 9 618 593
M  V30 696 9 611 593
M  V30 697 1 9 485
M  V30 698 1 20 325
M  V30 699 1 26 365
M  V30 700 1 1 525
M  V30 701 1 53 405
M  V30 702 1 61 565
M  V30 703 1 72 338
M  V30 704 1 78 498
M  V30 705 1 105 418
M  V30 706 1 113 511
M  V30 707 1 124 538
M  V30 708 1 130 445
M  V30 709 1 157 551
M  V30 710 1 165 391
M  V30 711 1 176 605
M  V30 712 1 182 458
M  V30 713 1 217 591
M  V30 714 1 228 431
M  V30 715 1 234 471
M  V30 716 1 209 618
M  V30 717 1 261 351
M  V30 718 1 269 578
M  V30 719 1 280 631
M  V30 720 1 286 378
M  V30 END BOND
M  V30 END CTAB
M  END

$$$$
