
     RDKit          3D

  0  0  0  0  0  0  0  0  0  0999 V3000
M  V30 BEGIN CTAB
M  V30 COUNTS 608 696 0 0 0
M  V30 BEGIN ATOM
M  V30 1 C -4.4049 3.8871 6.4768 0
M  V30 2 C -3.2322 4.1131 5.7504 0
M  V30 3 C -2.1770 3.2328 5.8378 0
M  V30 4 C -2.2251 2.1342 6.7015 0
M  V30 5 C -1.1105 1.1782 6.6992 0
M  V30 6 C 0.1951 1.6505 6.5791 0
M  V30 7 C 1.3029 0.8180 6.4392 0
M  V30 8 C 2.6097 1.4793 6.2782 0
M  V30 9 C 2.9483 2.4927 7.1774 0
M  V30 10 C 4.0983 3.2313 7.0074 0
M  V30 11 C 4.9490 2.9654 5.9339 0
M  V30 12 C 4.6312 1.9376 5.0441 0
M  V30 13 C 3.4682 1.2077 5.2135 0
M  V30 14 C 1.1010 -0.5661 6.4215 0
M  V30 15 C 2.1035 -1.6413 6.3385 0
M  V30 16 C 1.7730 -2.7579 5.5604 0
M  V30 17 C 2.4207 -3.9594 5.7364 0
M  V30 18 C 3.4736 -4.0429 6.6499 0
M  V30 19 C 3.9287 -2.8931 7.2928 0
M  V30 20 C 3.2301 -1.7053 7.1559 0
M  V30 21 C -0.2012 -1.0356 6.5863 0
M  V30 22 C -1.3021 -0.2071 6.7252 0
M  V30 23 C -2.5933 -0.9292 6.8055 0
M  V30 24 C -3.1747 -1.2382 8.0320 0
M  V30 25 C -4.2830 -2.0610 8.0922 0
M  V30 26 C -4.7738 -2.6451 6.9252 0
M  V30 27 C -4.1820 -2.3619 5.6949 0
M  V30 28 C -3.1180 -1.4854 5.6380 0
M  V30 29 C -3.3438 1.9914 7.5237 0
M  V30 30 C -4.4247 2.8396 7.4055 0
M  V30 31 H -3.1711 4.9618 5.0899 0
M  V30 32 H -1.3178 3.3762 5.2035 0
M  V30 33 H 0.3585 2.7158 6.5909 0
M  V30 34 H 2.3172 2.6910 8.0300 0
M  V30 35 H 4.3775 3.9776 7.7311 0
M  V30 36 H 5.2712 1.7576 4.1950 0
M  V30 37 H 3.2113 0.4361 4.5062 0
M  V30 38 H 0.9752 -2.6843 4.8397 0
M  V30 39 H 2.1356 -4.8365 5.1773 0
M  V30 40 H 4.7675 -2.9646 7.9666 0
M  V30 41 H 3.5289 -0.8471 7.7363 0
M  V30 42 H -0.3647 -2.0998 6.6369 0
M  V30 43 H -2.7488 -0.8617 8.9500 0
M  V30 44 H -4.7228 -2.3158 9.0448 0
M  V30 45 H -4.5807 -2.8242 4.8067 0
M  V30 46 H -2.6680 -1.2454 4.6879 0
M  V30 47 H -3.3736 1.2199 8.2731 0
M  V30 48 H -5.2675 2.7228 8.0692 0
M  V30 49 C 6.9100 -3.5792 4.6419 0
M  V30 50 C 5.7028 -3.2777 4.0107 0
M  V30 51 C 5.7015 -2.5690 2.8243 0
M  V30 52 C 6.9024 -2.1692 2.2409 0
M  V30 53 C 6.8870 -1.1648 1.1549 0
M  V30 54 C 7.1426 0.1329 1.5849 0
M  V30 55 C 7.0271 1.2302 0.7466 0
M  V30 56 C 7.0693 2.5540 1.4080 0
M  V30 57 C 8.2660 3.1328 1.8188 0
M  V30 58 C 8.2568 4.2966 2.5638 0
M  V30 59 C 7.0411 4.8424 2.9743 0
M  V30 60 C 5.8372 4.2592 2.5813 0
M  V30 61 C 5.8569 3.1430 1.7711 0
M  V30 62 C 6.7251 1.0253 -0.6054 0
M  V30 63 C 6.6485 2.1358 -1.5632 0
M  V30 64 C 5.6971 2.1245 -2.5868 0
M  V30 65 C 5.6070 3.1664 -3.4842 0
M  V30 66 C 6.4232 4.2920 -3.3436 0
M  V30 67 C 7.4214 4.2791 -2.3625 0
M  V30 68 C 7.5407 3.2080 -1.5023 0
M  V30 69 C 6.4857 -0.2765 -1.0349 0
M  V30 70 C 6.5222 -1.3740 -0.1763 0
M  V30 71 C 6.1978 -2.6868 -0.7628 0
M  V30 72 C 7.0432 -3.7842 -0.6210 0
M  V30 73 C 6.8072 -4.9447 -1.3337 0
M  V30 74 C 5.7295 -5.0185 -2.2202 0
M  V30 75 C 4.8387 -3.9505 -2.3138 0
M  V30 76 C 5.0684 -2.8049 -1.5803 0
M  V30 77 C 8.1074 -2.5428 2.8347 0
M  V30 78 C 8.1171 -3.2405 4.0261 0
M  V30 79 H 4.7803 -3.5437 4.5007 0
M  V30 80 H 4.7671 -2.2871 2.3666 0
M  V30 81 H 7.3919 0.2937 2.6218 0
M  V30 82 H 9.2101 2.6760 1.5621 0
M  V30 83 H 9.1834 4.7441 2.8914 0
M  V30 84 H 4.9124 4.7061 2.9095 0
M  V30 85 H 4.9317 2.6962 1.4441 0
M  V30 86 H 4.9977 1.3089 -2.6624 0
M  V30 87 H 4.8809 3.1254 -4.2792 0
M  V30 88 H 8.1364 5.0860 -2.3131 0
M  V30 89 H 8.3464 3.2043 -0.7876 0
M  V30 90 H 6.2906 -0.4511 -2.0798 0
M  V30 91 H 7.9131 -3.7200 0.0128 0
M  V30 92 H 7.5038 -5.7671 -1.2769 0
M  V30 93 H 3.9721 -4.0538 -2.9461 0
M  V30 94 H 4.3650 -1.9891 -1.6317 0
M  V30 95 H 9.0452 -2.2635 2.3786 0
M  V30 96 H 9.0532 -3.5363 4.4762 0
M  V30 97 C -2.7517 7.6010 4.8004 0
M  V30 98 C -3.1417 6.9611 3.6187 0
M  V30 99 C -2.3136 6.9161 2.5250 0
M  V30 100 C -1.0718 7.5600 2.5454 0
M  V30 101 C -0.2931 7.5103 1.3006 0
M  V30 102 C -1.0172 7.7227 0.1324 0
M  V30 103 C -0.4788 7.5428 -1.1363 0
M  V30 104 C -1.4914 7.5148 -2.2072 0
M  V30 105 C -2.4099 8.5635 -2.3075 0
M  V30 106 C -3.6052 8.3922 -2.9691 0
M  V30 107 C -3.9166 7.1530 -3.5453 0
M  V30 108 C -2.9250 6.1699 -3.6047 0
M  V30 109 C -1.7290 6.3466 -2.9356 0
M  V30 110 C 0.8765 7.2153 -1.2398 0
M  V30 111 C 1.5594 7.0148 -2.5244 0
M  V30 112 C 2.3763 5.8946 -2.6859 0
M  V30 113 C 3.0909 5.7140 -3.8471 0
M  V30 114 C 3.0146 6.6437 -4.8876 0
M  V30 115 C 2.1989 7.7700 -4.7251 0
M  V30 116 C 1.4761 7.9442 -3.5610 0
M  V30 117 C 1.6252 7.0751 -0.0722 0
M  V30 118 C 1.0685 7.1891 1.1972 0
M  V30 119 C 1.9123 6.9288 2.3760 0
M  V30 120 C 3.1702 7.5279 2.4676 0
M  V30 121 C 3.9784 7.3086 3.5645 0
M  V30 122 C 3.5271 6.5055 4.6128 0
M  V30 123 C 2.2845 5.8752 4.5152 0
M  V30 124 C 1.4977 6.0720 3.3974 0
M  V30 125 C -0.6927 8.2401 3.7037 0
M  V30 126 C -1.5105 8.2564 4.8178 0
M  V30 127 H -4.1186 6.5054 3.5743 0
M  V30 128 H -2.6203 6.3691 1.6483 0
M  V30 129 H -2.0551 8.0049 0.2090 0
M  V30 130 H -2.1983 9.5113 -1.8352 0
M  V30 131 H -4.2989 9.2157 -3.0450 0
M  V30 132 H -3.1343 5.2441 -4.1173 0
M  V30 133 H -1.0020 5.5511 -2.9141 0
M  V30 134 H 2.4330 5.1562 -1.9026 0
M  V30 135 H 3.7026 4.8381 -3.9627 0
M  V30 136 H 2.1738 8.5389 -5.4818 0
M  V30 137 H 0.8705 8.8296 -3.4436 0
M  V30 138 H 2.6734 6.8356 -0.1563 0
M  V30 139 H 3.5060 8.1972 1.6915 0
M  V30 140 H 4.9342 7.7992 3.6502 0
M  V30 141 H 1.9727 5.2051 5.2998 0
M  V30 142 H 0.5561 5.5568 3.3066 0
M  V30 143 H 0.2407 8.7803 3.7293 0
M  V30 144 H -1.1840 8.8069 5.6850 0
M  V30 145 C -7.3283 -4.6980 -2.5300 0
M  V30 146 C -6.6843 -3.5282 -2.9473 0
M  V30 147 C -6.6523 -2.4093 -2.1525 0
M  V30 148 C -7.3115 -2.3941 -0.9192 0
M  V30 149 C -7.2725 -1.1322 -0.1675 0
M  V30 150 C -7.4844 0.0246 -0.9079 0
M  V30 151 C -7.3369 1.2992 -0.3737 0
M  V30 152 C -7.3356 2.3654 -1.3917 0
M  V30 153 C -8.3878 2.4293 -2.3097 0
M  V30 154 C -8.2379 3.0891 -3.5088 0
M  V30 155 C -7.0169 3.7005 -3.8242 0
M  V30 156 C -6.0353 3.7949 -2.8337 0
M  V30 157 C -6.1903 3.1273 -1.6339 0
M  V30 158 C -7.0270 1.4212 0.9850 0
M  V30 159 C -6.8727 2.7255 1.6452 0
M  V30 160 C -5.7579 2.9639 2.4503 0
M  V30 161 C -5.6155 4.1620 3.1144 0
M  V30 162 C -6.5873 5.1596 3.0009 0
M  V30 163 C -7.7140 4.9159 2.2063 0
M  V30 164 C -7.8459 3.7184 1.5319 0
M  V30 165 C -6.8734 0.2631 1.7460 0
M  V30 166 C -6.9699 -1.0105 1.1962 0
M  V30 167 C -6.7238 -2.1929 2.0402 0
M  V30 168 C -7.4016 -2.3275 3.2524 0
M  V30 169 C -7.2042 -3.4364 4.0498 0
M  V30 170 C -6.3348 -4.4462 3.6357 0
M  V30 171 C -5.6357 -4.3103 2.4351 0
M  V30 172 C -5.8196 -3.1844 1.6561 0
M  V30 173 C -8.0014 -3.5390 -0.5176 0
M  V30 174 C -8.0080 -4.6764 -1.3024 0
M  V30 175 H -6.2121 -3.5144 -3.9166 0
M  V30 176 H -6.1036 -1.5405 -2.4784 0
M  V30 177 H -7.7474 -0.0649 -1.9499 0
M  V30 178 H -9.3203 1.9292 -2.0945 0
M  V30 179 H -9.0636 3.1362 -4.2023 0
M  V30 180 H -5.1254 4.3337 -3.0465 0
M  V30 181 H -5.3938 3.1334 -0.9077 0
M  V30 182 H -4.9891 2.2129 2.5353 0
M  V30 183 H -4.7354 4.3408 3.7054 0
M  V30 184 H -8.5131 5.6398 2.1623 0
M  V30 185 H -8.7299 3.5421 0.9388 0
M  V30 186 H -6.6468 0.3577 2.7963 0
M  V30 187 H -8.1112 -1.5756 3.5596 0
M  V30 188 H -7.7563 -3.5581 4.9670 0
M  V30 189 H -4.9252 -5.0699 2.1527 0
M  V30 190 H -5.2552 -3.0632 0.7466 0
M  V30 191 H -8.5591 -3.5350 0.4057 0
M  V30 192 H -8.5764 -5.5288 -0.9670 0
M  V30 193 C -5.0379 -2.9896 -6.4376 0
M  V30 194 C -3.9983 -3.1154 -5.5120 0
M  V30 195 C -2.8261 -2.4116 -5.6714 0
M  V30 196 C -2.6477 -1.5616 -6.7651 0
M  V30 197 C -1.3631 -0.8697 -6.9348 0
M  V30 198 C -0.1889 -1.6039 -6.7608 0
M  V30 199 C 1.0685 -1.0192 -6.8260 0
M  V30 200 C 2.2633 -1.8036 -6.4681 0
M  V30 201 C 2.5578 -2.9958 -7.1280 0
M  V30 202 C 3.6716 -3.7339 -6.7778 0
M  V30 203 C 4.5191 -3.2867 -5.7621 0
M  V30 204 C 4.2197 -2.0966 -5.0903 0
M  V30 205 C 3.0985 -1.3716 -5.4359 0
M  V30 206 C 1.1673 0.3414 -7.1490 0
M  V30 207 C 2.4235 1.1007 -7.1427 0
M  V30 208 C 2.4069 2.3535 -6.5220 0
M  V30 209 C 3.5415 3.1260 -6.4811 0
M  V30 210 C 4.7523 2.6667 -7.0100 0
M  V30 211 C 4.7613 1.4251 -7.6639 0
M  V30 212 C 3.6114 0.6628 -7.7311 0
M  V30 213 C -0.0004 1.0490 -7.4031 0
M  V30 214 C -1.2648 0.4882 -7.2568 0
M  V30 215 C -2.3409 1.4974 -7.2532 0
M  V30 216 C -2.4411 2.3931 -8.3213 0
M  V30 217 C -3.0872 3.5997 -8.1699 0
M  V30 218 C -3.6464 3.9447 -6.9319 0
M  V30 219 C -3.7080 2.9760 -5.9266 0
M  V30 220 C -3.0555 1.7682 -6.0840 0
M  V30 221 C -3.6783 -1.4434 -7.6979 0
M  V30 222 C -4.8540 -2.1513 -7.5447 0
M  V30 223 H -4.1234 -3.7512 -4.6534 0
M  V30 224 H -2.0486 -2.5012 -4.9302 0
M  V30 225 H -0.2596 -2.6557 -6.5325 0
M  V30 226 H 1.9255 -3.3357 -7.9332 0
M  V30 227 H 3.9184 -4.6362 -7.3122 0
M  V30 228 H 4.8409 -1.7825 -4.2679 0
M  V30 229 H 2.8474 -0.4732 -4.8967 0
M  V30 230 H 1.5030 2.7107 -6.0560 0
M  V30 231 H 3.5090 4.1082 -6.0378 0
M  V30 232 H 5.6488 1.0621 -8.1562 0
M  V30 233 H 3.6330 -0.2730 -8.2669 0
M  V30 234 H 0.0685 2.0876 -7.6846 0
M  V30 235 H -1.9761 2.1574 -9.2670 0
M  V30 236 H -3.1607 4.2784 -9.0060 0
M  V30 237 H -4.2033 3.2129 -4.9984 0
M  V30 238 H -3.0330 1.0590 -5.2725 0
M  V30 239 H -3.5490 -0.8193 -8.5686 0
M  V30 240 H -5.6070 -2.0964 -8.3157 0
M  V30 241 C -3.6679 -6.5114 -4.2022 0
M  V30 242 C -3.8800 -5.7641 -3.0399 0
M  V30 243 C -3.0148 -5.8690 -1.9742 0
M  V30 244 C -1.9394 -6.7608 -2.0092 0
M  V30 245 C -0.9865 -6.7746 -0.8944 0
M  V30 246 C -1.4409 -6.6356 0.4144 0
M  V30 247 C -0.5853 -6.4880 1.5027 0
M  V30 248 C -1.2391 -6.2557 2.8054 0
M  V30 249 C -2.2141 -7.1619 3.2252 0
M  V30 250 C -2.9691 -6.9142 4.3513 0
M  V30 251 C -2.7618 -5.7499 5.0915 0
M  V30 252 C -1.7712 -4.8507 4.6933 0
M  V30 253 C -1.0221 -5.1019 3.5569 0
M  V30 254 C 0.7964 -6.5097 1.2812 0
M  V30 255 C 1.8731 -6.3708 2.2757 0
M  V30 256 C 2.9854 -5.6021 1.9116 0
M  V30 257 C 4.1537 -5.6565 2.6370 0
M  V30 258 C 4.2195 -6.4331 3.7951 0
M  V30 259 C 3.0819 -7.1160 4.2260 0
M  V30 260 C 1.9246 -7.0961 3.4643 0
M  V30 261 C 1.2467 -6.7256 -0.0208 0
M  V30 262 C 0.3934 -6.8438 -1.1044 0
M  V30 263 C 1.0681 -6.8924 -2.4212 0
M  V30 264 C 1.6127 -8.0755 -2.9099 0
M  V30 265 C 2.4308 -8.0607 -4.0246 0
M  V30 266 C 2.7670 -6.8427 -4.6089 0
M  V30 267 C 2.1918 -5.6581 -4.1506 0
M  V30 268 C 1.3262 -5.6901 -3.0780 0
M  V30 269 C -1.7981 -7.5887 -3.1242 0
M  V30 270 C -2.6394 -7.4625 -4.2100 0
M  V30 271 H -4.7057 -5.0741 -2.9945 0
M  V30 272 H -3.1493 -5.2274 -1.1191 0
M  V30 273 H -2.5036 -6.6256 0.5948 0
M  V30 274 H -2.3747 -8.0746 2.6722 0
M  V30 275 H -3.6880 -7.6384 4.6936 0
M  V30 276 H -1.6439 -3.9335 5.2459 0
M  V30 277 H -0.2825 -4.3915 3.2257 0
M  V30 278 H 2.9366 -4.9759 1.0357 0
M  V30 279 H 5.0188 -5.0928 2.3297 0
M  V30 280 H 3.1400 -7.7343 5.1067 0
M  V30 281 H 1.0802 -7.6916 3.7732 0
M  V30 282 H 2.3063 -6.7994 -0.2050 0
M  V30 283 H 1.4137 -9.0129 -2.4120 0
M  V30 284 H 2.8742 -8.9734 -4.3941 0
M  V30 285 H 2.4262 -4.7387 -4.6626 0
M  V30 286 H 0.8788 -4.7802 -2.7119 0
M  V30 287 H -1.0335 -8.3477 -3.1425 0
M  V30 288 H -2.5306 -8.1347 -5.0470 0
M  V30 289 Zn 6.3712 5.8557 5.8617 0 CHG=2
M  V30 290 C 10.8752 3.9747 5.8476 0
M  V30 291 C 9.7247 3.2281 5.6468 0
M  V30 292 C 8.4868 3.8530 5.7758 0
M  V30 293 H 9.7863 2.1810 5.3973 0
M  V30 294 N 8.3746 5.1587 6.0725 0
M  V30 295 C 7.2407 3.1243 5.6855 0
M  V30 296 C 9.4757 5.8604 6.2853 0
M  V30 297 C 10.7485 5.3143 6.1855 0
M  V30 298 H 9.3462 6.8981 6.5513 0
M  V30 299 H 11.6151 5.9279 6.3723 0
M  V30 300 H 11.8527 3.5273 5.7545 0
M  V30 301 N 6.1244 3.7277 5.8478 0
M  V30 302 H 7.2972 2.0450 5.5652 0
M  V30 303 C 5.0375 6.6611 10.4467 0
M  V30 304 C 4.1743 6.7480 9.3633 0
M  V30 305 C 4.6634 6.4573 8.0920 0
M  V30 306 H 3.1461 7.0411 9.5040 0
M  V30 307 N 5.9404 6.0865 7.8890 0
M  V30 308 C 3.8345 6.5489 6.9055 0
M  V30 309 C 6.7571 5.9978 8.9246 0
M  V30 310 C 6.3520 6.2780 10.2247 0
M  V30 311 H 7.7701 5.6901 8.7164 0
M  V30 312 H 7.0518 6.1963 11.0406 0
M  V30 313 H 4.6945 6.8855 11.4448 0
M  V30 314 N 4.3424 6.3717 5.7445 0
M  V30 315 H 2.7866 6.8056 7.0441 0
M  V30 316 C 8.2883 10.3108 5.1699 0
M  V30 317 C 8.3490 9.2855 4.2377 0
M  V30 318 C 7.7103 8.0814 4.5232 0
M  V30 319 H 8.8813 9.4186 3.3091 0
M  V30 320 N 7.0382 7.8804 5.6688 0
M  V30 321 C 7.7187 6.9688 3.5991 0
M  V30 322 C 6.9758 8.8658 6.5481 0
M  V30 323 C 7.5847 10.0985 6.3463 0
M  V30 324 H 6.4244 8.6745 7.4554 0
M  V30 325 H 7.5128 10.8703 7.0955 0
M  V30 326 H 8.7780 11.2544 4.9853 0
M  V30 327 N 6.9995 5.9403 3.8390 0
M  V30 328 H 8.3282 7.0553 2.7038 0
M  V30 329 Zn 5.9483 -5.9944 6.4893 0 CHG=2
M  V30 330 C 3.6716 -9.7739 8.4859 0
M  V30 331 C 3.0747 -8.5456 8.2380 0
M  V30 332 C 3.8325 -7.5432 7.6380 0
M  V30 333 H 2.0465 -8.3711 8.5125 0
M  V30 334 N 5.1147 -7.7339 7.2839 0
M  V30 335 C 3.2945 -6.2263 7.3560 0
M  V30 336 C 5.6769 -8.9075 7.5147 0
M  V30 337 C 4.9955 -9.9598 8.1164 0
M  V30 338 H 6.7058 -9.0216 7.2097 0
M  V30 339 H 5.4942 -10.8999 8.2885 0
M  V30 340 H 3.1189 -10.5730 8.9549 0
M  V30 341 N 4.0567 -5.2918 6.9301 0
M  V30 342 H 2.2342 -6.0632 7.5364 0
M  V30 343 C 8.3261 -4.4328 10.4300 0
M  V30 344 C 8.4130 -3.8378 9.1803 0
M  V30 345 C 7.6322 -4.3402 8.1413 0
M  V30 346 H 9.0766 -3.0037 9.0157 0
M  V30 347 N 6.7977 -5.3781 8.3134 0
M  V30 348 C 7.6566 -3.7585 6.8179 0
M  V30 349 C 6.7100 -5.9333 9.5105 0
M  V30 350 C 7.4537 -5.4978 10.6005 0
M  V30 351 H 6.0245 -6.7602 9.6143 0
M  V30 352 H 7.3542 -5.9853 11.5568 0
M  V30 353 H 8.9233 -4.0754 11.2546 0
M  V30 354 N 6.8663 -4.1826 5.9046 0
M  V30 355 H 8.3428 -2.9328 6.6497 0
M  V30 356 C 10.0490 -7.7109 4.5234 0
M  V30 357 C 8.8815 -7.4803 3.8117 0
M  V30 358 C 7.7458 -7.0622 4.5013 0
M  V30 359 H 8.8531 -7.6287 2.7440 0
M  V30 360 N 7.7526 -6.8579 5.8283 0
M  V30 361 C 6.4748 -6.8691 3.8391 0
M  V30 362 C 8.8645 -7.0948 6.5042 0
M  V30 363 C 10.0383 -7.5240 5.8978 0
M  V30 364 H 8.8276 -6.9414 7.5721 0
M  V30 365 H 10.9187 -7.7069 6.4926 0
M  V30 366 H 10.9490 -8.0358 4.0248 0
M  V30 367 N 5.4284 -6.5512 4.5037 0
M  V30 368 H 6.4359 -7.0594 2.7690 0
M  V30 369 Zn -5.6728 -5.6277 6.4844 0 CHG=2
M  V30 370 C -10.1326 -4.9709 8.3822 0
M  V30 371 C -9.1439 -3.9982 8.3664 0
M  V30 372 C -7.9357 -4.2805 7.7338 0
M  V30 373 H -9.3081 -3.0412 8.8361 0
M  V30 374 N -7.6962 -5.4616 7.1406 0
M  V30 375 C -6.8645 -3.3128 7.6589 0
M  V30 376 C -8.6484 -6.3788 7.1477 0
M  V30 377 C -9.8827 -6.1825 7.7550 0
M  V30 378 H -8.4282 -7.3128 6.6547 0
M  V30 379 H -10.6264 -6.9628 7.7410 0
M  V30 380 H -11.0777 -4.7896 8.8703 0
M  V30 381 N -5.8216 -3.5699 6.9658 0
M  V30 382 H -6.9956 -2.3689 8.1800 0
M  V30 383 C -3.8558 -5.1440 10.9721 0
M  V30 384 C -3.1059 -5.0021 9.8143 0
M  V30 385 C -3.7017 -5.2915 8.5896 0
M  V30 386 H -2.0798 -4.6741 9.8621 0
M  V30 387 N -4.9838 -5.6838 8.4938 0
M  V30 388 C -2.9612 -5.2797 7.3467 0
M  V30 389 C -5.6846 -5.8456 9.6038 0
M  V30 390 C -5.1652 -5.5896 10.8665 0
M  V30 391 H -6.6990 -6.1961 9.4916 0
M  V30 392 H -5.7768 -5.7402 11.7415 0
M  V30 393 H -3.4317 -4.9259 11.9400 0
M  V30 394 N -3.5425 -5.5773 6.2465 0
M  V30 395 H -1.8897 -5.1016 7.4025 0
M  V30 396 C -6.3582 -10.2575 5.2515 0
M  V30 397 C -6.4608 -9.1980 4.3602 0
M  V30 398 C -6.2065 -7.9089 4.8206 0
M  V30 399 H -6.7381 -9.3712 3.3326 0
M  V30 400 N -5.8551 -7.6661 6.0965 0
M  V30 401 C -6.3178 -6.7426 3.9648 0
M  V30 402 C -5.7506 -8.6785 6.9404 0
M  V30 403 C -5.9956 -9.9945 6.5642 0
M  V30 404 H -5.4578 -8.4366 7.9505 0
M  V30 405 H -5.9026 -10.7914 7.2843 0
M  V30 406 H -6.5546 -11.2688 4.9310 0
M  V30 407 N -6.1843 -5.5712 4.4590 0
M  V30 408 H -6.5522 -6.9050 2.9153 0
M  V30 409 Zn 5.7266 -6.1501 -5.1965 0 CHG=2
M  V30 410 C 5.9292 -10.8342 -3.7187 0
M  V30 411 C 5.7308 -9.7612 -2.8641 0
M  V30 412 C 5.7880 -8.4700 -3.3828 0
M  V30 413 H 5.5341 -9.9235 -1.8164 0
M  V30 414 N 6.0080 -8.2281 -4.6857 0
M  V30 415 C 5.6907 -7.2991 -2.5439 0
M  V30 416 C 6.2245 -9.2571 -5.4892 0
M  V30 417 C 6.1983 -10.5759 -5.0547 0
M  V30 418 H 6.4424 -9.0344 -6.5216 0
M  V30 419 H 6.3898 -11.3772 -5.7502 0
M  V30 420 H 5.8914 -11.8496 -3.3556 0
M  V30 421 N 5.5830 -6.1324 -3.0580 0
M  V30 422 H 5.7525 -7.4466 -1.4690 0
M  V30 423 C 10.1998 -4.5757 -4.1966 0
M  V30 424 C 9.1270 -3.7378 -4.4641 0
M  V30 425 C 7.8999 -4.3054 -4.7974 0
M  V30 426 H 9.2418 -2.6666 -4.4160 0
M  V30 427 N 7.7222 -5.6373 -4.8511 0
M  V30 428 C 6.7435 -3.5037 -5.1341 0
M  V30 429 C 8.7502 -6.4318 -4.6045 0
M  V30 430 C 10.0105 -5.9474 -4.2752 0
M  V30 431 H 8.5671 -7.4932 -4.6703 0
M  V30 432 H 10.8204 -6.6342 -4.0884 0
M  V30 433 H 11.1667 -4.1729 -3.9380 0
M  V30 434 N 5.6292 -4.0680 -5.4222 0
M  V30 435 H 6.8729 -2.4250 -5.1725 0
M  V30 436 C 5.7308 -7.6921 -9.7979 0
M  V30 437 C 4.6712 -7.8758 -8.9201 0
M  V30 438 C 4.7551 -7.3220 -7.6460 0
M  V30 439 H 3.7999 -8.4363 -9.2203 0
M  V30 440 N 5.8270 -6.6170 -7.2438 0
M  V30 441 C 3.6882 -7.4424 -6.6709 0
M  V30 442 C 6.8301 -6.4383 -8.0860 0
M  V30 443 C 6.8289 -6.9572 -9.3755 0
M  V30 444 H 7.6681 -5.8633 -7.7228 0
M  V30 445 H 7.6692 -6.7944 -10.0307 0
M  V30 446 H 5.7005 -8.1143 -10.7905 0
M  V30 447 N 3.7555 -6.7592 -5.5955 0
M  V30 448 H 2.8456 -8.0862 -6.9073 0
M  V30 449 Zn -5.6994 6.7448 5.7836 0 CHG=2
M  V30 450 C -10.2796 5.1128 6.0142 0
M  V30 451 C -9.1564 4.3095 6.1298 0
M  V30 452 C -7.8988 4.9100 6.1471 0
M  V30 453 H -9.2527 3.2384 6.2067 0
M  V30 454 N -7.7436 6.2392 6.0330 0
M  V30 455 C -6.6898 4.1407 6.3119 0
M  V30 456 C -8.8201 7.0022 5.9417 0
M  V30 457 C -10.1093 6.4873 5.9301 0
M  V30 458 H -8.6543 8.0663 5.8816 0
M  V30 459 H -10.9557 7.1514 5.8609 0
M  V30 460 H -11.2695 4.6839 5.9986 0
M  V30 461 N -5.5271 4.6822 6.2312 0
M  V30 462 H -6.8102 3.0777 6.5036 0
M  V30 463 C -4.9561 8.0595 10.4162 0
M  V30 464 C -4.0056 8.2045 9.4183 0
M  V30 465 C -4.3101 7.7715 8.1274 0
M  V30 466 H -3.0485 8.6517 9.6359 0
M  V30 467 N -5.4942 7.2150 7.8264 0
M  V30 468 C -3.3618 7.9109 7.0455 0
M  V30 469 C -6.3937 7.0712 8.7849 0
M  V30 470 C -6.1741 7.4778 10.0944 0
M  V30 471 H -7.3320 6.6182 8.5049 0
M  V30 472 H -6.9402 7.3469 10.8414 0
M  V30 473 H -4.7552 8.3913 11.4231 0
M  V30 474 N -3.6416 7.4929 5.8655 0
M  V30 475 H -2.4171 8.3810 7.3006 0
M  V30 476 C -7.0286 11.0839 4.0053 0
M  V30 477 C -7.1352 9.9078 3.2807 0
M  V30 478 C -6.7162 8.7131 3.8658 0
M  V30 479 H -7.5432 9.9157 2.2826 0
M  V30 480 N -6.1994 8.6715 5.1042 0
M  V30 481 C -6.8356 7.4541 3.1709 0
M  V30 482 C -6.0978 9.7985 5.7901 0
M  V30 483 C -6.5014 11.0282 5.2877 0
M  V30 484 H -5.6841 9.7278 6.7841 0
M  V30 485 H -6.4080 11.9179 5.8892 0
M  V30 486 H -7.3509 12.0246 3.5866 0
M  V30 487 N -6.4006 6.3639 3.6880 0
M  V30 488 H -7.2996 7.4799 2.1891 0
M  V30 489 Zn 5.8323 5.5850 -6.2407 0 CHG=2
M  V30 490 C 6.2327 10.1628 -4.6440 0
M  V30 491 C 6.2934 9.0452 -3.8269 0
M  V30 492 C 6.2626 7.7812 -4.4130 0
M  V30 493 H 6.3637 9.1513 -2.7563 0
M  V30 494 N 6.1585 7.6152 -5.7413 0
M  V30 495 C 6.3663 6.5744 -3.6297 0
M  V30 496 C 6.1203 8.6855 -6.5174 0
M  V30 497 C 6.1555 9.9800 -6.0173 0
M  V30 498 H 6.0660 8.5101 -7.5803 0
M  V30 499 H 6.1280 10.8207 -6.6916 0
M  V30 500 H 6.2546 11.1575 -4.2268 0
M  V30 501 N 6.2146 5.4124 -4.1560 0
M  V30 502 H 6.5761 6.6945 -2.5700 0
M  V30 503 C 10.5193 4.4808 -6.9962 0
M  V30 504 C 9.4857 3.5648 -7.1112 0
M  V30 505 C 8.1769 3.9929 -6.8893 0
M  V30 506 H 9.6907 2.5399 -7.3773 0
M  V30 507 N 7.8921 5.2615 -6.5523 0
M  V30 508 C 7.0547 3.0956 -7.0405 0
M  V30 509 C 8.8830 6.1301 -6.4413 0
M  V30 510 C 10.2122 5.7908 -6.6575 0
M  V30 511 H 8.6142 7.1403 -6.1744 0
M  V30 512 H 10.9855 6.5363 -6.5651 0
M  V30 513 H 11.5424 4.1854 -7.1702 0
M  V30 514 N 5.8545 3.4975 -6.8275 0
M  V30 515 H 7.2909 2.0815 -7.3476 0
M  V30 516 C 4.4630 6.8183 -10.7395 0
M  V30 517 C 3.6634 7.0232 -9.6264 0
M  V30 518 C 4.1301 6.6183 -8.3761 0
M  V30 519 H 2.6984 7.4943 -9.7255 0
M  V30 520 N 5.3257 6.0272 -8.2220 0
M  V30 521 C 3.3524 6.8250 -7.1778 0
M  V30 522 C 6.0825 5.8294 -9.2890 0
M  V30 523 C 5.6980 6.2092 -10.5679 0
M  V30 524 H 7.0373 5.3539 -9.1264 0
M  V30 525 H 6.3524 6.0355 -11.4067 0
M  V30 526 H 4.1358 7.1271 -11.7203 0
M  V30 527 N 3.7667 6.4014 -6.0403 0
M  V30 528 H 2.4026 7.3381 -7.2937 0
M  V30 529 Zn -6.5350 -5.7847 -5.4655 0 CHG=2
M  V30 530 C -7.6816 -10.4161 -4.4686 0
M  V30 531 C -7.7949 -9.3855 -3.5493 0
M  V30 532 C -7.4369 -8.0937 -3.9356 0
M  V30 533 H -8.1620 -9.5793 -2.5539 0
M  V30 534 N -6.9773 -7.8233 -5.1678 0
M  V30 535 C -7.5596 -6.9765 -3.0273 0
M  V30 536 C -6.8665 -8.8119 -6.0391 0
M  V30 537 C -7.2077 -10.1243 -5.7397 0
M  V30 538 H -6.4956 -8.5548 -7.0190 0
M  V30 539 H -7.1081 -10.8964 -6.4853 0
M  V30 540 H -7.9579 -11.4253 -4.2048 0
M  V30 541 N -7.2119 -5.7936 -3.3821 0
M  V30 542 H -7.9565 -7.2055 -2.0431 0
M  V30 543 C -10.9503 -4.1347 -6.6897 0
M  V30 544 C -9.7950 -3.3854 -6.8428 0
M  V30 545 C -8.5750 -3.9373 -6.4523 0
M  V30 546 H -9.8385 -2.3939 -7.2646 0
M  V30 547 N -8.4901 -5.1668 -5.9201 0
M  V30 548 C -7.3364 -3.2153 -6.6173 0
M  V30 549 C -9.5973 -5.8758 -5.7722 0
M  V30 550 C -10.8498 -5.4069 -6.1448 0
M  V30 551 H -9.4906 -6.8607 -5.3450 0
M  V30 552 H -11.7227 -6.0259 -6.0142 0
M  V30 553 H -11.9095 -3.7420 -6.9897 0
M  V30 554 N -6.2197 -3.7039 -6.2168 0
M  V30 555 H -7.4027 -2.2369 -7.0841 0
M  V30 556 C -4.9894 -6.1576 -10.0670 0
M  V30 557 C -4.1663 -6.2636 -8.9574 0
M  V30 558 C -4.7417 -6.2400 -7.6879 0
M  V30 559 H -3.0992 -6.3653 -9.0733 0
M  V30 560 N -6.0649 -6.0960 -7.5096 0
M  V30 561 C -3.9515 -6.3947 -6.4909 0
M  V30 562 C -6.8472 -6.0138 -8.5729 0
M  V30 563 C -6.3584 -6.0426 -9.8719 0
M  V30 564 H -7.9065 -5.9282 -8.3882 0
M  V30 565 H -7.0377 -5.9797 -10.7067 0
M  V30 566 H -4.5800 -6.1740 -11.0651 0
M  V30 567 N -4.4678 -6.2679 -5.3212 0
M  V30 568 H -2.8975 -6.6216 -6.6278 0
M  V30 569 Zn -5.8731 5.9593 -5.7980 0 CHG=2
M  V30 570 C -9.9048 7.6808 -3.7528 0
M  V30 571 C -8.6466 7.7564 -3.1763 0
M  V30 572 C -7.5462 7.3028 -3.9015 0
M  V30 573 H -8.5196 8.1646 -2.1866 0
M  V30 574 N -7.6734 6.7806 -5.1320 0
M  V30 575 C -6.1986 7.4083 -3.3963 0
M  V30 576 C -8.8745 6.7205 -5.6818 0
M  V30 577 C -10.0210 7.1609 -5.0340 0
M  V30 578 H -8.9281 6.3107 -6.6785 0
M  V30 579 H -10.9788 7.1012 -5.5253 0
M  V30 580 H -10.7790 8.0268 -3.2232 0
M  V30 581 N -5.2039 6.8837 -4.0194 0
M  V30 582 H -6.0625 7.9676 -2.4748 0
M  V30 583 C -3.7316 9.9256 -7.5572 0
M  V30 584 C -3.1802 8.6551 -7.6106 0
M  V30 585 C -3.9304 7.5767 -7.1453 0
M  V30 586 H -2.1907 8.5019 -8.0102 0
M  V30 587 N -5.1612 7.7365 -6.6332 0
M  V30 588 C -3.4523 6.2176 -7.2264 0
M  V30 589 C -5.6871 8.9492 -6.5943 0
M  V30 590 C -5.0134 10.0756 -7.0475 0
M  V30 591 H -6.6852 9.0284 -6.1920 0
M  V30 592 H -5.4856 11.0439 -7.0053 0
M  V30 593 H -3.1822 10.7835 -7.9130 0
M  V30 594 N -4.0971 5.2455 -6.6861 0
M  V30 595 H -2.5325 6.0525 -7.7804 0
M  V30 596 C -7.5348 3.8354 -9.8151 0
M  V30 597 C -7.6000 3.2709 -8.5510 0
M  V30 598 C -7.1709 4.0202 -7.4571 0
M  V30 599 H -7.9807 2.2716 -8.4146 0
M  V30 600 N -6.6816 5.2630 -7.5958 0
M  V30 601 C -7.2660 3.5262 -6.1048 0
M  V30 602 C -6.6328 5.8015 -8.8026 0
M  V30 603 C -7.0506 5.1294 -9.9435 0
M  V30 604 H -6.2510 6.8087 -8.8651 0
M  V30 605 H -7.0007 5.6120 -10.9063 0
M  V30 606 H -7.8614 3.2866 -10.6849 0
M  V30 607 N -6.7616 4.1731 -5.1148 0
M  V30 608 H -7.7980 2.5899 -5.9611 0
M  V30 END ATOM
M  V30 BEGIN BOND
M  V30 1 2 1 2
M  V30 2 1 2 3
M  V30 3 2 3 4
M  V30 4 1 4 5
M  V30 5 2 5 6
M  V30 6 1 6 7
M  V30 7 1 7 8
M  V30 8 2 8 9
M  V30 9 1 9 10
M  V30 10 2 10 11
M  V30 11 1 11 12
M  V30 12 2 12 13
M  V30 13 2 7 14
M  V30 14 1 14 15
M  V30 15 2 15 16
M  V30 16 1 16 17
M  V30 17 2 17 18
M  V30 18 1 18 19
M  V30 19 2 19 20
M  V30 20 1 14 21
M  V30 21 2 21 22
M  V30 22 1 22 23
M  V30 23 2 23 24
M  V30 24 1 24 25
M  V30 25 2 25 26
M  V30 26 1 26 27
M  V30 27 2 27 28
M  V30 28 1 4 29
M  V30 29 2 29 30
M  V30 30 1 30 1
M  V30 31 1 22 5
M  V30 32 1 28 23
M  V30 33 1 13 8
M  V30 34 1 20 15
M  V30 35 1 2 31
M  V30 36 1 3 32
M  V30 37 1 6 33
M  V30 38 1 9 34
M  V30 39 1 10 35
M  V30 40 1 12 36
M  V30 41 1 13 37
M  V30 42 1 16 38
M  V30 43 1 17 39
M  V30 44 1 19 40
M  V30 45 1 20 41
M  V30 46 1 21 42
M  V30 47 1 24 43
M  V30 48 1 25 44
M  V30 49 1 27 45
M  V30 50 1 28 46
M  V30 51 1 29 47
M  V30 52 1 30 48
M  V30 53 2 49 50
M  V30 54 1 50 51
M  V30 55 2 51 52
M  V30 56 1 52 53
M  V30 57 2 53 54
M  V30 58 1 54 55
M  V30 59 1 55 56
M  V30 60 2 56 57
M  V30 61 1 57 58
M  V30 62 2 58 59
M  V30 63 1 59 60
M  V30 64 2 60 61
M  V30 65 2 55 62
M  V30 66 1 62 63
M  V30 67 2 63 64
M  V30 68 1 64 65
M  V30 69 2 65 66
M  V30 70 1 66 67
M  V30 71 2 67 68
M  V30 72 1 62 69
M  V30 73 2 69 70
M  V30 74 1 70 71
M  V30 75 2 71 72
M  V30 76 1 72 73
M  V30 77 2 73 74
M  V30 78 1 74 75
M  V30 79 2 75 76
M  V30 80 1 52 77
M  V30 81 2 77 78
M  V30 82 1 78 49
M  V30 83 1 70 53
M  V30 84 1 76 71
M  V30 85 1 61 56
M  V30 86 1 68 63
M  V30 87 1 50 79
M  V30 88 1 51 80
M  V30 89 1 54 81
M  V30 90 1 57 82
M  V30 91 1 58 83
M  V30 92 1 60 84
M  V30 93 1 61 85
M  V30 94 1 64 86
M  V30 95 1 65 87
M  V30 96 1 67 88
M  V30 97 1 68 89
M  V30 98 1 69 90
M  V30 99 1 72 91
M  V30 100 1 73 92
M  V30 101 1 75 93
M  V30 102 1 76 94
M  V30 103 1 77 95
M  V30 104 1 78 96
M  V30 105 2 97 98
M  V30 106 1 98 99
M  V30 107 2 99 100
M  V30 108 1 100 101
M  V30 109 2 101 102
M  V30 110 1 102 103
M  V30 111 1 103 104
M  V30 112 2 104 105
M  V30 113 1 105 106
M  V30 114 2 106 107
M  V30 115 1 107 108
M  V30 116 2 108 109
M  V30 117 2 103 110
M  V30 118 1 110 111
M  V30 119 2 111 112
M  V30 120 1 112 113
M  V30 121 2 113 114
M  V30 122 1 114 115
M  V30 123 2 115 116
M  V30 124 1 110 117
M  V30 125 2 117 118
M  V30 126 1 118 119
M  V30 127 2 119 120
M  V30 128 1 120 121
M  V30 129 2 121 122
M  V30 130 1 122 123
M  V30 131 2 123 124
M  V30 132 1 100 125
M  V30 133 2 125 126
M  V30 134 1 126 97
M  V30 135 1 118 101
M  V30 136 1 124 119
M  V30 137 1 109 104
M  V30 138 1 116 111
M  V30 139 1 98 127
M  V30 140 1 99 128
M  V30 141 1 102 129
M  V30 142 1 105 130
M  V30 143 1 106 131
M  V30 144 1 108 132
M  V30 145 1 109 133
M  V30 146 1 112 134
M  V30 147 1 113 135
M  V30 148 1 115 136
M  V30 149 1 116 137
M  V30 150 1 117 138
M  V30 151 1 120 139
M  V30 152 1 121 140
M  V30 153 1 123 141
M  V30 154 1 124 142
M  V30 155 1 125 143
M  V30 156 1 126 144
M  V30 157 2 145 146
M  V30 158 1 146 147
M  V30 159 2 147 148
M  V30 160 1 148 149
M  V30 161 2 149 150
M  V30 162 1 150 151
M  V30 163 1 151 152
M  V30 164 2 152 153
M  V30 165 1 153 154
M  V30 166 2 154 155
M  V30 167 1 155 156
M  V30 168 2 156 157
M  V30 169 2 151 158
M  V30 170 1 158 159
M  V30 171 2 159 160
M  V30 172 1 160 161
M  V30 173 2 161 162
M  V30 174 1 162 163
M  V30 175 2 163 164
M  V30 176 1 158 165
M  V30 177 2 165 166
M  V30 178 1 166 167
M  V30 179 2 167 168
M  V30 180 1 168 169
M  V30 181 2 169 170
M  V30 182 1 170 171
M  V30 183 2 171 172
M  V30 184 1 148 173
M  V30 185 2 173 174
M  V30 186 1 174 145
M  V30 187 1 166 149
M  V30 188 1 172 167
M  V30 189 1 157 152
M  V30 190 1 164 159
M  V30 191 1 146 175
M  V30 192 1 147 176
M  V30 193 1 150 177
M  V30 194 1 153 178
M  V30 195 1 154 179
M  V30 196 1 156 180
M  V30 197 1 157 181
M  V30 198 1 160 182
M  V30 199 1 161 183
M  V30 200 1 163 184
M  V30 201 1 164 185
M  V30 202 1 165 186
M  V30 203 1 168 187
M  V30 204 1 169 188
M  V30 205 1 171 189
M  V30 206 1 172 190
M  V30 207 1 173 191
M  V30 208 1 174 192
M  V30 209 2 193 194
M  V30 210 1 194 195
M  V30 211 2 195 196
M  V30 212 1 196 197
M  V30 213 2 197 198
M  V30 214 1 198 199
M  V30 215 1 199 200
M  V30 216 2 200 201
M  V30 217 1 201 202
M  V30 218 2 202 203
M  V30 219 1 203 204
M  V30 220 2 204 205
M  V30 221 2 199 206
M  V30 222 1 206 207
M  V30 223 2 207 208
M  V30 224 1 208 209
M  V30 225 2 209 210
M  V30 226 1 210 211
M  V30 227 2 211 212
M  V30 228 1 206 213
M  V30 229 2 213 214
M  V30 230 1 214 215
M  V30 231 2 215 216
M  V30 232 1 216 217
M  V30 233 2 217 218
M  V30 234 1 218 219
M  V30 235 2 219 220
M  V30 236 1 196 221
M  V30 237 2 221 222
M  V30 238 1 222 193
M  V30 239 1 214 197
M  V30 240 1 220 215
M  V30 241 1 205 200
M  V30 242 1 212 207
M  V30 243 1 194 223
M  V30 244 1 195 224
M  V30 245 1 198 225
M  V30 246 1 201 226
M  V30 247 1 202 227
M  V30 248 1 204 228
M  V30 249 1 205 229
M  V30 250 1 208 230
M  V30 251 1 209 231
M  V30 252 1 211 232
M  V30 253 1 212 233
M  V30 254 1 213 234
M  V30 255 1 216 235
M  V30 256 1 217 236
M  V30 257 1 219 237
M  V30 258 1 220 238
M  V30 259 1 221 239
M  V30 260 1 222 240
M  V30 261 2 241 242
M  V30 262 1 242 243
M  V30 263 2 243 244
M  V30 264 1 244 245
M  V30 265 2 245 246
M  V30 266 1 246 247
M  V30 267 1 247 248
M  V30 268 2 248 249
M  V30 269 1 249 250
M  V30 270 2 250 251
M  V30 271 1 251 252
M  V30 272 2 252 253
M  V30 273 2 247 254
M  V30 274 1 254 255
M  V30 275 2 255 256
M  V30 276 1 256 257
M  V30 277 2 257 258
M  V30 278 1 258 259
M  V30 279 2 259 260
M  V30 280 1 254 261
M  V30 281 2 261 262
M  V30 282 1 262 263
M  V30 283 2 263 264
M  V30 284 1 264 265
M  V30 285 2 265 266
M  V30 286 1 266 267
M  V30 287 2 267 268
M  V30 288 1 244 269
M  V30 289 2 269 270
M  V30 290 1 270 241
M  V30 291 1 262 245
M  V30 292 1 268 263
M  V30 293 1 253 248
M  V30 294 1 260 255
M  V30 295 1 242 271
M  V30 296 1 243 272
M  V30 297 1 246 273
M  V30 298 1 249 274
M  V30 299 1 250 275
M  V30 300 1 252 276
M  V30 301 1 253 277
M  V30 302 1 256 278
M  V30 303 1 257 279
M  V30 304 1 259 280
M  V30 305 1 260 281
M  V30 306 1 261 282
M  V30 307 1 264 283
M  V30 308 1 265 284
M  V30 309 1 267 285
M  V30 310 1 268 286
M  V30 311 1 269 287
M  V30 312 1 270 288
M  V30 313 1 290 300
M  V30 314 2 290 297
M  V30 315 1 291 290
M  V30 316 2 292 291
M  V30 317 1 292 294
M  V30 318 1 293 291
M  V30 319 2 294 296
M  V30 320 1 295 292
M  V30 321 1 296 297
M  V30 322 1 296 298
M  V30 323 1 297 299
M  V30 324 2 301 295
M  V30 325 1 302 295
M  V30 326 1 303 313
M  V30 327 2 303 310
M  V30 328 1 304 303
M  V30 329 2 305 304
M  V30 330 1 305 307
M  V30 331 1 306 304
M  V30 332 2 307 309
M  V30 333 1 308 305
M  V30 334 1 309 310
M  V30 335 1 309 311
M  V30 336 1 310 312
M  V30 337 2 314 308
M  V30 338 1 315 308
M  V30 339 1 316 326
M  V30 340 2 316 323
M  V30 341 1 317 316
M  V30 342 2 318 317
M  V30 343 1 318 320
M  V30 344 1 319 317
M  V30 345 2 320 322
M  V30 346 1 321 318
M  V30 347 1 322 323
M  V30 348 1 322 324
M  V30 349 1 323 325
M  V30 350 2 327 321
M  V30 351 1 328 321
M  V30 352 9 301 289
M  V30 353 9 294 289
M  V30 354 9 314 289
M  V30 355 9 307 289
M  V30 356 9 327 289
M  V30 357 9 320 289
M  V30 358 1 330 340
M  V30 359 2 330 337
M  V30 360 1 331 330
M  V30 361 2 332 331
M  V30 362 1 332 334
M  V30 363 1 333 331
M  V30 364 2 334 336
M  V30 365 1 335 332
M  V30 366 1 336 337
M  V30 367 1 336 338
M  V30 368 1 337 339
M  V30 369 2 341 335
M  V30 370 1 342 335
M  V30 371 1 343 353
M  V30 372 2 343 350
M  V30 373 1 344 343
M  V30 374 2 345 344
M  V30 375 1 345 347
M  V30 376 1 346 344
M  V30 377 2 347 349
M  V30 378 1 348 345
M  V30 379 1 349 350
M  V30 380 1 349 351
M  V30 381 1 350 352
M  V30 382 2 354 348
M  V30 383 1 355 348
M  V30 384 1 356 366
M  V30 385 2 356 363
M  V30 386 1 357 356
M  V30 387 2 358 357
M  V30 388 1 358 360
M  V30 389 1 359 357
M  V30 390 2 360 362
M  V30 391 1 361 358
M  V30 392 1 362 363
M  V30 393 1 362 364
M  V30 394 1 363 365
M  V30 395 2 367 361
M  V30 396 1 368 361
M  V30 397 9 341 329
M  V30 398 9 334 329
M  V30 399 9 354 329
M  V30 400 9 347 329
M  V30 401 9 367 329
M  V30 402 9 360 329
M  V30 403 1 370 380
M  V30 404 2 370 377
M  V30 405 1 371 370
M  V30 406 2 372 371
M  V30 407 1 372 374
M  V30 408 1 373 371
M  V30 409 2 374 376
M  V30 410 1 375 372
M  V30 411 1 376 377
M  V30 412 1 376 378
M  V30 413 1 377 379
M  V30 414 2 381 375
M  V30 415 1 382 375
M  V30 416 1 383 393
M  V30 417 2 383 390
M  V30 418 1 384 383
M  V30 419 2 385 384
M  V30 420 1 385 387
M  V30 421 1 386 384
M  V30 422 2 387 389
M  V30 423 1 388 385
M  V30 424 1 389 390
M  V30 425 1 389 391
M  V30 426 1 390 392
M  V30 427 2 394 388
M  V30 428 1 395 388
M  V30 429 1 396 406
M  V30 430 2 396 403
M  V30 431 1 397 396
M  V30 432 2 398 397
M  V30 433 1 398 400
M  V30 434 1 399 397
M  V30 435 2 400 402
M  V30 436 1 401 398
M  V30 437 1 402 403
M  V30 438 1 402 404
M  V30 439 1 403 405
M  V30 440 2 407 401
M  V30 441 1 408 401
M  V30 442 9 381 369
M  V30 443 9 374 369
M  V30 444 9 394 369
M  V30 445 9 387 369
M  V30 446 9 407 369
M  V30 447 9 400 369
M  V30 448 1 410 420
M  V30 449 2 410 417
M  V30 450 1 411 410
M  V30 451 2 412 411
M  V30 452 1 412 414
M  V30 453 1 413 411
M  V30 454 2 414 416
M  V30 455 1 415 412
M  V30 456 1 416 417
M  V30 457 1 416 418
M  V30 458 1 417 419
M  V30 459 2 421 415
M  V30 460 1 422 415
M  V30 461 1 423 433
M  V30 462 2 423 430
M  V30 463 1 424 423
M  V30 464 2 425 424
M  V30 465 1 425 427
M  V30 466 1 426 424
M  V30 467 2 427 429
M  V30 468 1 428 425
M  V30 469 1 429 430
M  V30 470 1 429 431
M  V30 471 1 430 432
M  V30 472 2 434 428
M  V30 473 1 435 428
M  V30 474 1 436 446
M  V30 475 2 436 443
M  V30 476 1 437 436
M  V30 477 2 438 437
M  V30 478 1 438 440
M  V30 479 1 439 437
M  V30 480 2 440 442
M  V30 481 1 441 438
M  V30 482 1 442 443
M  V30 483 1 442 444
M  V30 484 1 443 445
M  V30 485 2 447 441
M  V30 486 1 448 441
M  V30 487 9 421 409
M  V30 488 9 414 409
M  V30 489 9 434 409
M  V30 490 9 427 409
M  V30 491 9 447 409
M  V30 492 9 440 409
M  V30 493 1 450 460
M  V30 494 2 450 457
M  V30 495 1 451 450
M  V30 496 2 452 451
M  V30 497 1 452 454
M  V30 498 1 453 451
M  V30 499 2 454 456
M  V30 500 1 455 452
M  V30 501 1 456 457
M  V30 502 1 456 458
M  V30 503 1 457 459
M  V30 504 2 461 455
M  V30 505 1 462 455
M  V30 506 1 463 473
M  V30 507 2 463 470
M  V30 508 1 464 463
M  V30 509 2 465 464
M  V30 510 1 465 467
M  V30 511 1 466 464
M  V30 512 2 467 469
M  V30 513 1 468 465
M  V30 514 1 469 470
M  V30 515 1 469 471
M  V30 516 1 470 472
M  V30 517 2 474 468
M  V30 518 1 475 468
M  V30 519 1 476 486
M  V30 520 2 476 483
M  V30 521 1 477 476
M  V30 522 2 478 477
M  V30 523 1 478 480
M  V30 524 1 479 477
M  V30 525 2 480 482
M  V30 526 1 481 478
M  V30 527 1 482 483
M  V30 528 1 482 484
M  V30 529 1 483 485
M  V30 530 2 487 481
M  V30 531 1 488 481
M  V30 532 9 461 449
M  V30 533 9 454 449
M  V30 534 9 487 449
M  V30 535 9 480 449
M  V30 536 9 474 449
M  V30 537 9 467 449
M  V30 538 1 490 500
M  V30 539 2 490 497
M  V30 540 1 491 490
M  V30 541 2 492 491
M  V30 542 1 492 494
M  V30 543 1 493 491
M  V30 544 2 494 496
M  V30 545 1 495 492
M  V30 546 1 496 497
M  V30 547 1 496 498
M  V30 548 1 497 499
M  V30 549 2 501 495
M  V30 550 1 502 495
M  V30 551 1 503 513
M  V30 552 2 503 510
M  V30 553 1 504 503
M  V30 554 2 505 504
M  V30 555 1 505 507
M  V30 556 1 506 504
M  V30 557 2 507 509
M  V30 558 1 508 505
M  V30 559 1 509 510
M  V30 560 1 509 511
M  V30 561 1 510 512
M  V30 562 2 514 508
M  V30 563 1 515 508
M  V30 564 1 516 526
M  V30 565 2 516 523
M  V30 566 1 517 516
M  V30 567 2 518 517
M  V30 568 1 518 520
M  V30 569 1 519 517
M  V30 570 2 520 522
M  V30 571 1 521 518
M  V30 572 1 522 523
M  V30 573 1 522 524
M  V30 574 1 523 525
M  V30 575 2 527 521
M  V30 576 1 528 521
M  V30 577 9 501 489
M  V30 578 9 494 489
M  V30 579 9 527 489
M  V30 580 9 520 489
M  V30 581 9 514 489
M  V30 582 9 507 489
M  V30 583 1 530 540
M  V30 584 2 530 537
M  V30 585 1 531 530
M  V30 586 2 532 531
M  V30 587 1 532 534
M  V30 588 1 533 531
M  V30 589 2 534 536
M  V30 590 1 535 532
M  V30 591 1 536 537
M  V30 592 1 536 538
M  V30 593 1 537 539
M  V30 594 2 541 535
M  V30 595 1 542 535
M  V30 596 1 543 553
M  V30 597 2 543 550
M  V30 598 1 544 543
M  V30 599 2 545 544
M  V30 600 1 545 547
M  V30 601 1 546 544
M  V30 602 2 547 549
M  V30 603 1 548 545
M  V30 604 1 549 550
M  V30 605 1 549 551
M  V30 606 1 550 552
M  V30 607 2 554 548
M  V30 608 1 555 548
M  V30 609 1 556 566
M  V30 610 2 556 563
M  V30 611 1 557 556
M  V30 612 2 558 557
M  V30 613 1 558 560
M  V30 614 1 559 557
M  V30 615 2 560 562
M  V30 616 1 561 558
M  V30 617 1 562 563
M  V30 618 1 562 564
M  V30 619 1 563 565
M  V30 620 2 567 561
M  V30 621 1 568 561
M  V30 622 9 541 529
M  V30 623 9 534 529
M  V30 624 9 567 529
M  V30 625 9 560 529
M  V30 626 9 554 529
M  V30 627 9 547 529
M  V30 628 1 570 580
M  V30 629 2 570 577
M  V30 630 1 571 570
M  V30 631 2 572 571
M  V30 632 1 572 574
M  V30 633 1 573 571
M  V30 634 2 574 576
M  V30 635 1 575 572
M  V30 636 1 576 577
M  V30 637 1 576 578
M  V30 638 1 577 579
M  V30 639 2 581 575
M  V30 640 1 582 575
M  V30 641 1 583 593
M  V30 642 2 583 590
M  V30 643 1 584 583
M  V30 644 2 585 584
M  V30 645 1 585 587
M  V30 646 1 586 584
M  V30 647 2 587 589
M  V30 648 1 588 585
M  V30 649 1 589 590
M  V30 650 1 589 591
M  V30 651 1 590 592
M  V30 652 2 594 588
M  V30 653 1 595 588
M  V30 654 1 596 606
M  V30 655 2 596 603
M  V30 656 1 597 596
M  V30 657 2 598 597
M  V30 658 1 598 600
M  V30 659 1 599 597
M  V30 660 2 600 602
M  V30 661 1 601 598
M  V30 662 1 602 603
M  V30 663 1 602 604
M  V30 664 1 603 605
M  V30 665 2 607 601
M  V30 666 1 608 601
M  V30 667 9 581 569
M  V30 668 9 574 569
M  V30 669 9 607 569
M  V30 670 9 600 569
M  V30 671 9 594 569
M  V30 672 9 587 569
M  V30 673 1 11 301
M  V30 674 1 18 341
M  V30 675 1 26 381
M  V30 676 1 1 461
M  V30 677 1 66 501
M  V30 678 1 74 421
M  V30 679 1 49 354
M  V30 680 1 59 327
M  V30 681 1 114 527
M  V30 682 1 122 314
M  V30 683 1 97 474
M  V30 684 1 107 581
M  V30 685 1 162 487
M  V30 686 1 170 407
M  V30 687 1 145 541
M  V30 688 1 155 607
M  V30 689 1 203 434
M  V30 690 1 210 514
M  V30 691 1 218 594
M  V30 692 1 193 554
M  V30 693 1 258 367
M  V30 694 1 266 447
M  V30 695 1 241 567
M  V30 696 1 251 394
M  V30 END BOND
M  V30 END CTAB
M  END

$$$$
