
     RDKit          3D

  0  0  0  0  0  0  0  0  0  0999 V3000
M  V30 BEGIN CTAB
M  V30 COUNTS 632 720 0 0 0
M  V30 BEGIN ATOM
M  V30 1 C 4.4216 2.8812 8.8741 0
M  V30 2 C 4.7438 1.5323 8.6546 0
M  V30 3 C 3.7584 0.5814 8.5686 0
M  V30 4 C 2.4045 0.9193 8.7511 0
M  V30 5 N 1.4229 -0.0070 8.4872 0
M  V30 6 C 1.7450 -1.3805 8.4040 0
M  V30 7 C 2.3584 -2.0463 9.4646 0
M  V30 8 C 2.6802 -3.3850 9.3485 0
M  V30 9 C 2.4444 -4.0531 8.1476 0
M  V30 10 C 1.8304 -3.3863 7.0864 0
M  V30 11 C 1.4546 -2.0681 7.2231 0
M  V30 12 C 0.0864 0.3395 8.2023 0
M  V30 13 C -0.9434 -0.5008 8.6323 0
M  V30 14 C -2.2590 -0.1872 8.3666 0
M  V30 15 C -2.5795 0.9851 7.6787 0
M  V30 16 N -3.9150 1.3554 7.4927 0
M  V30 17 C -4.9495 0.4526 7.3359 0
M  V30 18 C -4.8037 -0.6763 6.5128 0
M  V30 19 C -5.8750 -1.5031 6.2682 0
M  V30 20 C -7.1260 -1.2752 6.8638 0
M  V30 21 C -7.2494 -0.1750 7.7301 0
M  V30 22 C -6.1985 0.6838 7.9326 0
M  V30 23 C -4.2524 2.7412 7.5444 0
M  V30 24 C -4.3051 3.4454 6.3444 0
M  V30 25 C -4.7034 4.7666 6.3387 0
M  V30 26 C -5.0565 5.3972 7.5341 0
M  V30 27 C -4.9731 4.6964 8.7386 0
M  V30 28 C -4.5615 3.3755 8.7432 0
M  V30 29 C -1.5493 1.8084 7.2189 0
M  V30 30 C -0.2322 1.4789 7.4621 0
M  V30 31 C 2.1023 2.2447 9.1142 0
M  V30 32 C 3.0836 3.2057 9.1450 0
M  V30 33 H 5.7649 1.2590 8.4444 0
M  V30 34 H 4.0277 -0.4309 8.3154 0
M  V30 35 H 2.5722 -1.5201 10.3823 0
M  V30 36 H 3.1558 -3.9016 10.1684 0
M  V30 37 H 1.6305 -3.9332 6.1802 0
M  V30 38 H 0.9632 -1.5535 6.4124 0
M  V30 39 H -0.7103 -1.3832 9.2063 0
M  V30 40 H -3.0467 -0.8237 8.7366 0
M  V30 41 H -3.8547 -0.8638 6.0361 0
M  V30 42 H -5.7824 -2.3166 5.5654 0
M  V30 43 H -8.1594 -0.0104 8.2847 0
M  V30 44 H -6.3277 1.5212 8.5996 0
M  V30 45 H -4.0493 2.9510 5.4204 0
M  V30 46 H -4.7324 5.3303 5.4200 0
M  V30 47 H -5.2759 5.1640 9.6631 0
M  V30 48 H -4.5002 2.8375 9.6770 0
M  V30 49 H -1.7795 2.7055 6.6692 0
M  V30 50 H 0.5548 2.0997 7.0682 0
M  V30 51 H 1.0899 2.5127 9.3692 0
M  V30 52 H 2.8391 4.2258 9.3946 0
M  V30 53 C 6.6222 4.3891 -3.5092 0
M  V30 54 C 6.0420 3.4966 -4.4230 0
M  V30 55 C 5.5911 2.2601 -4.0380 0
M  V30 56 C 5.7101 1.8429 -2.7015 0
M  V30 57 N 5.2301 0.6119 -2.3059 0
M  V30 58 C 5.1120 -0.4371 -3.2220 0
M  V30 59 C 6.1018 -0.6552 -4.1865 0
M  V30 60 C 5.9251 -1.6118 -5.1576 0
M  V30 61 C 4.7585 -2.3891 -5.1904 0
M  V30 62 C 3.8102 -2.2236 -4.1772 0
M  V30 63 C 3.9846 -1.2633 -3.2024 0
M  V30 64 C 4.9484 0.3897 -0.9369 0
M  V30 65 C 5.5300 -0.6792 -0.2571 0
M  V30 66 C 5.4371 -0.7524 1.1195 0
M  V30 67 C 4.7537 0.2401 1.8236 0
M  V30 68 N 4.8291 0.3267 3.2221 0
M  V30 69 C 4.9733 -0.7880 4.0439 0
M  V30 70 C 4.1688 -1.9233 3.8907 0
M  V30 71 C 4.2590 -2.9552 4.7987 0
M  V30 72 C 5.1585 -2.9098 5.8716 0
M  V30 73 C 6.0297 -1.8091 5.9587 0
M  V30 74 C 5.9239 -0.7645 5.0750 0
M  V30 75 C 4.9126 1.5861 3.8172 0
M  V30 76 C 4.2959 1.7903 5.0579 0
M  V30 77 C 4.3416 3.0252 5.6568 0
M  V30 78 C 4.9791 4.1072 5.0422 0
M  V30 79 C 5.6177 3.8942 3.8108 0
M  V30 80 C 5.5843 2.6555 3.2115 0
M  V30 81 C 4.0360 1.2157 1.1234 0
M  V30 82 C 4.1397 1.2952 -0.2475 0
M  V30 83 C 6.2830 2.7365 -1.7796 0
M  V30 84 C 6.7284 3.9755 -2.1690 0
M  V30 85 H 5.9663 3.7991 -5.4546 0
M  V30 86 H 5.1281 1.6179 -4.7687 0
M  V30 87 H 7.0108 -0.0742 -4.1700 0
M  V30 88 H 6.7107 -1.8018 -5.8724 0
M  V30 89 H 2.9049 -2.8060 -4.1917 0
M  V30 90 H 3.2261 -1.1118 -2.4505 0
M  V30 91 H 6.1147 -1.4048 -0.7991 0
M  V30 92 H 5.9549 -1.5332 1.6527 0
M  V30 93 H 3.4495 -1.9624 3.0879 0
M  V30 94 H 3.5970 -3.8002 4.7298 0
M  V30 95 H 6.8258 -1.7983 6.6859 0
M  V30 96 H 6.6009 0.0714 5.1570 0
M  V30 97 H 3.7724 0.9800 5.5387 0
M  V30 98 H 3.8521 3.1813 6.6011 0
M  V30 99 H 6.1984 4.6827 3.3603 0
M  V30 100 H 6.1097 2.4999 2.2834 0
M  V30 101 H 3.4262 1.9220 1.6625 0
M  V30 102 H 3.6227 2.0683 -0.7916 0
M  V30 103 H 6.3986 2.4437 -0.7494 0
M  V30 104 H 7.1394 4.6320 -1.4209 0
M  V30 105 C -3.2568 8.2943 -3.5514 0
M  V30 106 C -2.1117 8.2760 -4.3564 0
M  V30 107 C -0.8706 7.9886 -3.8465 0
M  V30 108 C -0.6948 7.7618 -2.4725 0
M  V30 109 N 0.5384 7.4044 -1.9572 0
M  V30 110 C 1.7159 7.5759 -2.6761 0
M  V30 111 C 1.9234 8.7109 -3.4744 0
M  V30 112 C 2.9545 8.7493 -4.3788 0
M  V30 113 C 3.8194 7.6479 -4.5208 0
M  V30 114 C 3.7462 6.6307 -3.5581 0
M  V30 115 C 2.7105 6.5887 -2.6501 0
M  V30 116 C 0.5820 6.9674 -0.6004 0
M  V30 117 C 1.1710 7.7888 0.3559 0
M  V30 118 C 0.9069 7.5704 1.6949 0
M  V30 119 C 0.0597 6.5322 2.0714 0
M  V30 120 N -0.4824 6.5137 3.3897 0
M  V30 121 C 0.4334 6.5310 4.4768 0
M  V30 122 C 0.9427 5.3138 4.9215 0
M  V30 123 C 1.7765 5.2785 6.0209 0
M  V30 124 C 2.1234 6.4582 6.6767 0
M  V30 125 C 1.6369 7.6811 6.2107 0
M  V30 126 C 0.7951 7.7153 5.1168 0
M  V30 127 C -1.7932 6.8813 3.5874 0
M  V30 128 C -2.2574 7.2138 4.8718 0
M  V30 129 C -3.5659 7.5692 5.0791 0
M  V30 130 C -4.4911 7.5931 4.0269 0
M  V30 131 C -4.0398 7.2344 2.7476 0
M  V30 132 C -2.7293 6.8833 2.5365 0
M  V30 133 C -0.3470 5.5886 1.1297 0
M  V30 134 C -0.0924 5.8113 -0.2119 0
M  V30 135 C -1.8364 7.8296 -1.6532 0
M  V30 136 C -3.0850 8.0708 -2.1761 0
M  V30 137 H -2.2129 8.5122 -5.4001 0
M  V30 138 H -0.0384 7.9290 -4.5268 0
M  V30 139 H 1.2662 9.5619 -3.3805 0
M  V30 140 H 3.1154 9.6439 -4.9600 0
M  V30 141 H 4.4782 5.8395 -3.5780 0
M  V30 142 H 2.6309 5.7646 -1.9590 0
M  V30 143 H 1.7533 8.6429 0.0488 0
M  V30 144 H 1.2892 8.2559 2.4331 0
M  V30 145 H 0.6607 4.4012 4.4212 0
M  V30 146 H 2.1260 4.3450 6.4237 0
M  V30 147 H 1.9460 8.5970 6.6902 0
M  V30 148 H 0.4073 8.6625 4.7745 0
M  V30 149 H -1.5852 7.2134 5.7126 0
M  V30 150 H -3.8861 7.8832 6.0567 0
M  V30 151 H -4.7401 7.1736 1.9311 0
M  V30 152 H -2.4311 6.6003 1.5417 0
M  V30 153 H -0.9036 4.7203 1.4443 0
M  V30 154 H -0.4658 5.1339 -0.9629 0
M  V30 155 H -1.7445 7.7003 -0.5883 0
M  V30 156 H -3.9348 8.0470 -1.5150 0
M  V30 157 C -7.3489 4.5476 4.9596 0
M  V30 158 C -7.1819 3.2153 5.3726 0
M  V30 159 C -6.8695 2.2347 4.4694 0
M  V30 160 C -6.7804 2.5210 3.0927 0
M  V30 161 N -6.5856 1.4942 2.2036 0
M  V30 162 C -6.9527 0.1778 2.5674 0
M  V30 163 C -8.1639 -0.0676 3.2180 0
M  V30 164 C -8.4914 -1.3437 3.6156 0
M  V30 165 C -7.6219 -2.4018 3.3518 0
M  V30 166 C -6.4465 -2.1733 2.6375 0
M  V30 167 C -6.1087 -0.8882 2.2556 0
M  V30 168 C -6.3058 1.6779 0.8273 0
M  V30 169 C -7.1433 1.0482 -0.0942 0
M  V30 170 C -6.8615 1.1092 -1.4393 0
M  V30 171 C -5.7291 1.7909 -1.8893 0
M  V30 172 N -5.4205 1.7260 -3.2753 0
M  V30 173 C -5.6118 0.4530 -3.8356 0
M  V30 174 C -5.1036 -0.6574 -3.1468 0
M  V30 175 C -5.4638 -1.9307 -3.5190 0
M  V30 176 C -6.3292 -2.1297 -4.6050 0
M  V30 177 C -6.7100 -1.0317 -5.3809 0
M  V30 178 C -6.3691 0.2469 -4.9945 0
M  V30 179 C -5.2835 2.8496 -4.0569 0
M  V30 180 C -4.7305 2.7370 -5.3459 0
M  V30 181 C -4.7171 3.8115 -6.1978 0
M  V30 182 C -5.2072 5.0600 -5.7792 0
M  V30 183 C -5.6179 5.2047 -4.4470 0
M  V30 184 C -5.6695 4.1211 -3.6028 0
M  V30 185 C -4.9113 2.4532 -0.9756 0
M  V30 186 C -5.2001 2.3990 0.3787 0
M  V30 187 C -6.8820 3.8636 2.6885 0
M  V30 188 C -7.1450 4.8527 3.6068 0
M  V30 189 H -7.2369 2.9690 6.4202 0
M  V30 190 H -6.6989 1.2323 4.8285 0
M  V30 191 H -8.8521 0.7419 3.4026 0
M  V30 192 H -9.4370 -1.5406 4.0915 0
M  V30 193 H -5.7875 -3.0031 2.4393 0
M  V30 194 H -5.1853 -0.7004 1.7313 0
M  V30 195 H -8.0195 0.5221 0.2475 0
M  V30 196 H -7.5226 0.6350 -2.1460 0
M  V30 197 H -4.4458 -0.5027 -2.3062 0
M  V30 198 H -5.0616 -2.7841 -2.9984 0
M  V30 199 H -7.3550 -1.1927 -6.2298 0
M  V30 200 H -6.7503 1.0875 -5.5521 0
M  V30 201 H -4.3207 1.7938 -5.6698 0
M  V30 202 H -4.2915 3.7102 -7.1829 0
M  V30 203 H -5.9705 6.1701 -4.1221 0
M  V30 204 H -6.0630 4.2421 -2.6070 0
M  V30 205 H -4.0376 2.9796 -1.3245 0
M  V30 206 H -4.5527 2.8833 1.0920 0
M  V30 207 H -6.8045 4.1165 1.6439 0
M  V30 208 H -7.2749 5.8742 3.2894 0
M  V30 209 C -5.2769 -2.7717 -8.6561 0
M  V30 210 C -4.2847 -3.6952 -8.2998 0
M  V30 211 C -2.9523 -3.3812 -8.3879 0
M  V30 212 C -2.5465 -2.1126 -8.8408 0
M  V30 213 N -1.2438 -1.6980 -8.6610 0
M  V30 214 C -0.2408 -2.6504 -8.4127 0
M  V30 215 C -0.0122 -3.7045 -9.3034 0
M  V30 216 C 0.9157 -4.6796 -9.0110 0
M  V30 217 C 1.6191 -4.6417 -7.7985 0
M  V30 218 C 1.4268 -3.5520 -6.9412 0
M  V30 219 C 0.5209 -2.5627 -7.2424 0
M  V30 220 C -0.8886 -0.3419 -8.5235 0
M  V30 221 C 0.3983 0.0721 -8.8758 0
M  V30 222 C 0.7934 1.3798 -8.6991 0
M  V30 223 C -0.1048 2.3369 -8.2157 0
M  V30 224 N 0.2784 3.6525 -8.0328 0
M  V30 225 C 1.6358 4.0584 -7.9527 0
M  V30 226 C 2.1146 4.3865 -6.6834 0
M  V30 227 C 3.4335 4.7398 -6.5068 0
M  V30 228 C 4.3052 4.7946 -7.5972 0
M  V30 229 C 3.8062 4.5312 -8.8779 0
M  V30 230 C 2.4860 4.1555 -9.0512 0
M  V30 231 C -0.6547 4.7074 -7.8682 0
M  V30 232 C -1.3790 4.8781 -6.6892 0
M  V30 233 C -2.2261 5.9602 -6.5509 0
M  V30 234 C -2.3620 6.8916 -7.5851 0
M  V30 235 C -1.6747 6.6872 -8.7850 0
M  V30 236 C -0.8185 5.6141 -8.9147 0
M  V30 237 C -1.3955 1.9199 -7.8698 0
M  V30 238 C -1.7690 0.6005 -7.9889 0
M  V30 239 C -3.5329 -1.2622 -9.3710 0
M  V30 240 C -4.8667 -1.5794 -9.2780 0
M  V30 241 H -4.5920 -4.6657 -7.9449 0
M  V30 242 H -2.2197 -4.1003 -8.0604 0
M  V30 243 H -0.5622 -3.7490 -10.2315 0
M  V30 244 H 1.1083 -5.4531 -9.7385 0
M  V30 245 H 1.9692 -3.5395 -6.0100 0
M  V30 246 H 0.3629 -1.7380 -6.5657 0
M  V30 247 H 1.0906 -0.6378 -9.3002 0
M  V30 248 H 1.7972 1.6654 -8.9658 0
M  V30 249 H 1.4545 4.3245 -5.8333 0
M  V30 250 H 3.8210 4.9274 -5.5198 0
M  V30 251 H 4.4374 4.6526 -9.7453 0
M  V30 252 H 2.1199 3.9472 -10.0452 0
M  V30 253 H -1.2599 4.1827 -5.8730 0
M  V30 254 H -2.7497 6.1264 -5.6217 0
M  V30 255 H -1.8320 7.3450 -9.6258 0
M  V30 256 H -0.2831 5.4678 -9.8398 0
M  V30 257 H -2.1065 2.6318 -7.4883 0
M  V30 258 H -2.7453 0.2936 -7.6530 0
M  V30 259 H -3.2420 -0.3406 -9.8497 0
M  V30 260 H -5.5952 -0.8708 -9.6376 0
M  V30 261 C -5.0240 -4.8163 5.7321 0
M  V30 262 C -3.7769 -4.3229 6.1410 0
M  V30 263 C -2.6671 -4.4731 5.3413 0
M  V30 264 C -2.7611 -5.1441 4.1132 0
M  V30 265 N -1.6642 -5.2859 3.2836 0
M  V30 266 C -0.3635 -5.4711 3.7413 0
M  V30 267 C -0.0781 -6.1469 4.9328 0
M  V30 268 C 1.2290 -6.3943 5.2938 0
M  V30 269 C 2.2828 -6.0081 4.4595 0
M  V30 270 C 1.9992 -5.3029 3.2814 0
M  V30 271 C 0.6992 -5.0129 2.9471 0
M  V30 272 C -1.8441 -5.3817 1.8828 0
M  V30 273 C -1.1785 -6.3880 1.1808 0
M  V30 274 C -1.1731 -6.3719 -0.1956 0
M  V30 275 C -1.8558 -5.3664 -0.8787 0
M  V30 276 N -1.6783 -5.2390 -2.2753 0
M  V30 277 C -0.3789 -5.2449 -2.7504 0
M  V30 278 C 0.6409 -4.6457 -1.9933 0
M  V30 279 C 1.9471 -4.6885 -2.4145 0
M  V30 280 C 2.2872 -5.3337 -3.6167 0
M  V30 281 C 1.2594 -5.8961 -4.3856 0
M  V30 282 C -0.0493 -5.8494 -3.9700 0
M  V30 283 C -2.7650 -5.3200 -3.1512 0
M  V30 284 C -2.8809 -4.3754 -4.1766 0
M  V30 285 C -3.9190 -4.4592 -5.0774 0
M  V30 286 C -4.7919 -5.5498 -5.0303 0
M  V30 287 C -4.7108 -6.4606 -3.9750 0
M  V30 288 C -3.7335 -6.3162 -3.0116 0
M  V30 289 C -2.6169 -4.4311 -0.1821 0
M  V30 290 C -2.6014 -4.4317 1.1996 0
M  V30 291 C -4.0103 -5.6250 3.6988 0
M  V30 292 C -5.1184 -5.4578 4.4923 0
M  V30 293 H -3.7009 -3.7718 7.0641 0
M  V30 294 H -1.7235 -4.0579 5.6561 0
M  V30 295 H -0.8794 -6.5157 5.5526 0
M  V30 296 H 1.4477 -6.9511 6.1890 0
M  V30 297 H 2.8086 -4.9456 2.6651 0
M  V30 298 H 0.4932 -4.4304 2.0642 0
M  V30 299 H -0.6524 -7.1616 1.7161 0
M  V30 300 H -0.6333 -7.1246 -0.7470 0
M  V30 301 H 0.3877 -4.1258 -1.0840 0
M  V30 302 H 2.7019 -4.1714 -1.8449 0
M  V30 303 H 1.5160 -6.4217 -5.2888 0
M  V30 304 H -0.8167 -6.3173 -4.5650 0
M  V30 305 H -2.1602 -3.5771 -4.2541 0
M  V30 306 H -4.0416 -3.7249 -5.8562 0
M  V30 307 H -5.4271 -7.2642 -3.9084 0
M  V30 308 H -3.6826 -7.0121 -2.1894 0
M  V30 309 H -3.1575 -3.6733 -0.7242 0
M  V30 310 H -3.1217 -3.6692 1.7553 0
M  V30 311 H -4.0966 -6.1657 2.7702 0
M  V30 312 H -6.0580 -5.8886 4.1989 0
M  V30 313 Zn 5.0678 5.7930 7.7553 0 CHG=2
M  V30 314 C 9.8383 5.4931 8.5210 0
M  V30 315 C 8.9268 4.5353 8.9282 0
M  V30 316 C 7.5850 4.6783 8.5642 0
M  V30 317 H 9.2431 3.6945 9.5257 0
M  V30 318 N 7.1572 5.7200 7.8294 0
M  V30 319 C 6.5940 3.7057 8.9432 0
M  V30 320 C 8.0389 6.6236 7.4314 0
M  V30 321 C 9.3873 6.5562 7.7483 0
M  V30 322 H 7.6590 7.4364 6.8325 0
M  V30 323 H 10.0696 7.3163 7.4041 0
M  V30 324 H 10.8791 5.4141 8.7951 0
M  V30 325 N 5.3472 3.8904 8.6744 0
M  V30 326 H 6.9486 2.8225 9.4658 0
M  V30 327 C 4.2305 7.8291 12.1434 0
M  V30 328 C 3.2878 7.7829 11.1277 0
M  V30 329 C 3.6235 7.1559 9.9298 0
M  V30 330 H 2.3137 8.2257 11.2637 0
M  V30 331 N 4.8251 6.5935 9.7273 0
M  V30 332 C 2.7045 7.0964 8.8160 0
M  V30 333 C 5.7170 6.6378 10.7009 0
M  V30 334 C 5.4697 7.2453 11.9260 0
M  V30 335 H 6.6743 6.1792 10.5078 0
M  V30 336 H 6.2329 7.2635 12.6873 0
M  V30 337 H 4.0089 8.3114 13.0829 0
M  V30 338 N 2.9846 6.4033 7.7787 0
M  V30 339 H 1.7788 7.6597 8.9025 0
M  V30 340 C 4.9589 10.1109 5.4639 0
M  V30 341 C 4.8680 8.8905 4.8165 0
M  V30 342 C 4.9736 7.7194 5.5669 0
M  V30 343 H 4.7239 8.8423 3.7491 0
M  V30 344 N 5.1409 7.7420 6.9015 0
M  V30 345 C 4.9241 6.4159 4.9592 0
M  V30 346 C 5.2422 8.9124 7.5113 0
M  V30 347 C 5.1588 10.1226 6.8379 0
M  V30 348 H 5.4008 8.8884 8.5776 0
M  V30 349 H 5.2532 11.0483 7.3824 0
M  V30 350 H 4.8852 11.0390 4.9190 0
M  V30 351 N 4.9491 5.3445 5.6755 0
M  V30 352 H 4.8502 6.3757 3.8760 0
M  V30 353 Zn 4.5065 -5.9954 6.7059 0 CHG=2
M  V30 354 C 2.9210 -10.0059 8.9479 0
M  V30 355 C 2.5436 -8.7205 9.3088 0
M  V30 356 C 2.9461 -7.6552 8.5078 0
M  V30 357 H 1.9493 -8.5493 10.1926 0
M  V30 358 N 3.6876 -7.8347 7.4020 0
M  V30 359 C 2.5569 -6.2891 8.7820 0
M  V30 360 C 4.0302 -9.0631 7.0536 0
M  V30 361 C 3.6700 -10.1829 7.7935 0
M  V30 362 H 4.6129 -9.1612 6.1505 0
M  V30 363 H 3.9736 -11.1679 7.4778 0
M  V30 364 H 2.6331 -10.8520 9.5526 0
M  V30 365 N 2.8477 -5.3749 7.9377 0
M  V30 366 H 1.9744 -6.0948 9.6786 0
M  V30 367 C 6.6537 -5.5669 11.0457 0
M  V30 368 C 6.3637 -4.5073 10.2059 0
M  V30 369 C 5.8595 -4.7723 8.9301 0
M  V30 370 H 6.5316 -3.4916 10.5278 0
M  V30 371 N 5.6198 -6.0247 8.5084 0
M  V30 372 C 5.6333 -3.7199 7.9797 0
M  V30 373 C 5.9319 -7.0342 9.3061 0
M  V30 374 C 6.4514 -6.8601 10.5794 0
M  V30 375 H 5.7755 -8.0277 8.9156 0
M  V30 376 H 6.6946 -7.7153 11.1888 0
M  V30 377 H 7.0441 -5.3990 12.0377 0
M  V30 378 N 5.1783 -3.9471 6.7928 0
M  V30 379 H 5.9030 -2.7220 8.3116 0
M  V30 380 C 8.0428 -7.6496 3.8160 0
M  V30 381 C 6.7457 -7.4148 3.3879 0
M  V30 382 C 5.8166 -6.9176 4.3014 0
M  V30 383 H 6.4574 -7.6231 2.3698 0
M  V30 384 N 6.1446 -6.6501 5.5783 0
M  V30 385 C 4.4398 -6.6757 3.9428 0
M  V30 386 C 7.3858 -6.8673 5.9782 0
M  V30 387 C 8.3702 -7.3691 5.1352 0
M  V30 388 H 7.6142 -6.6373 7.0074 0
M  V30 389 H 9.3674 -7.5362 5.5096 0
M  V30 390 H 8.7884 -8.0430 3.1428 0
M  V30 391 N 3.5973 -6.2840 4.8335 0
M  V30 392 H 4.1407 -6.8678 2.9157 0
M  V30 393 Zn -8.1759 -4.1692 5.9211 0 CHG=2
M  V30 394 C -12.8708 -2.9708 6.2090 0
M  V30 395 C -11.8258 -2.1557 6.6033 0
M  V30 396 C -10.5117 -2.5765 6.3769 0
M  V30 397 H -12.0203 -1.2114 7.0871 0
M  V30 398 N -10.2371 -3.7480 5.7780 0
M  V30 399 C -9.3953 -1.7503 6.7429 0
M  V30 400 C -11.2447 -4.5139 5.3885 0
M  V30 401 C -12.5750 -4.1743 5.5803 0
M  V30 402 H -10.9880 -5.4421 4.9034 0
M  V30 403 H -13.3610 -4.8345 5.2514 0
M  V30 404 H -13.8953 -2.6788 6.3817 0
M  V30 405 N -8.1739 -2.1231 6.5473 0
M  V30 406 H -9.6478 -0.7758 7.1457 0
M  V30 407 C -8.3896 -5.1157 10.7065 0
M  V30 408 C -7.2142 -5.0251 9.9816 0
M  V30 409 C -7.2844 -4.8345 8.6005 0
M  V30 410 H -6.2591 -5.1066 10.4758 0
M  V30 411 N -8.4578 -4.7199 7.9561 0
M  V30 412 C -6.1001 -4.8300 7.7806 0
M  V30 413 C -9.5761 -4.8302 8.6534 0
M  V30 414 C -9.5972 -5.0295 10.0267 0
M  V30 415 H -10.5040 -4.7676 8.1060 0
M  V30 416 H -10.5368 -5.1170 10.5481 0
M  V30 417 H -8.3734 -5.2625 11.7756 0
M  V30 418 N -6.1788 -4.7098 6.5031 0
M  V30 419 H -5.1560 -5.0147 8.2860 0
M  V30 420 C -9.0669 -8.2638 3.4134 0
M  V30 421 C -8.7313 -7.0609 2.8068 0
M  V30 422 C -8.4482 -5.9624 3.6131 0
M  V30 423 H -8.6968 -6.9791 1.7323 0
M  V30 424 N -8.4810 -6.0359 4.9565 0
M  V30 425 C -8.1035 -4.6617 3.0678 0
M  V30 426 C -8.7960 -7.1835 5.5297 0
M  V30 427 C -9.0989 -8.3277 4.7982 0
M  V30 428 H -8.8059 -7.1993 6.6087 0
M  V30 429 H -9.3518 -9.2430 5.3085 0
M  V30 430 H -9.2978 -9.1373 2.8238 0
M  V30 431 N -7.9428 -3.6705 3.8564 0
M  V30 432 H -8.0146 -4.5627 1.9882 0
M  V30 433 Zn -6.9505 7.5325 6.0381 0 CHG=2
M  V30 434 C -5.5630 11.2679 8.8163 0
M  V30 435 C -5.2465 9.9468 9.0978 0
M  V30 436 C -5.5595 8.9675 8.1582 0
M  V30 437 H -4.7716 9.6829 10.0298 0
M  V30 438 N -6.1511 9.2642 6.9902 0
M  V30 439 C -5.2115 7.5760 8.3541 0
M  V30 440 C -6.4318 10.5266 6.7182 0
M  V30 441 C -6.1585 11.5661 7.5995 0
M  V30 442 H -6.8912 10.7221 5.7614 0
M  V30 443 H -6.4091 12.5823 7.3411 0
M  V30 444 H -5.3455 12.0491 9.5284 0
M  V30 445 N -5.4848 6.7234 7.4424 0
M  V30 446 H -4.6525 7.3238 9.2516 0
M  V30 447 C -10.1022 6.9257 9.7401 0
M  V30 448 C -9.7169 5.9325 8.8602 0
M  V30 449 C -8.8226 6.2442 7.8313 0
M  V30 450 H -10.1075 4.9322 8.9593 0
M  V30 451 N -8.3149 7.4790 7.6831 0
M  V30 452 C -8.4412 5.2647 6.8554 0
M  V30 453 C -8.7101 8.4294 8.5162 0
M  V30 454 C -9.5951 8.2071 9.5589 0
M  V30 455 H -8.3185 9.4204 8.3472 0
M  V30 456 H -9.8835 9.0165 10.2098 0
M  V30 457 H -10.7901 6.7196 10.5458 0
M  V30 458 N -7.6832 5.5533 5.8507 0
M  V30 459 H -8.8712 4.2752 6.9768 0
M  V30 460 C -9.9889 9.8363 3.0112 0
M  V30 461 C -8.6678 9.5535 2.7115 0
M  V30 462 C -7.8992 8.8515 3.6426 0
M  V30 463 H -8.2356 9.8769 1.7783 0
M  V30 464 N -8.4083 8.4373 4.8171 0
M  V30 465 C -6.5142 8.5377 3.4025 0
M  V30 466 C -9.6742 8.7041 5.0923 0
M  V30 467 C -10.5045 9.4007 4.2248 0
M  V30 468 H -10.0533 8.3523 6.0391 0
M  V30 469 H -11.5291 9.5959 4.4975 0
M  V30 470 H -10.6126 10.3826 2.3207 0
M  V30 471 N -5.8076 7.9296 4.2960 0
M  V30 472 H -6.0890 8.8601 2.4568 0
M  V30 473 Zn 6.5514 6.5440 -5.8796 0 CHG=2
M  V30 474 C 9.3124 9.7938 -3.5516 0
M  V30 475 C 9.0001 8.5439 -3.0476 0
M  V30 476 C 8.1435 7.7148 -3.7769 0
M  V30 477 H 9.4168 8.2117 -2.1100 0
M  V30 478 N 7.6157 8.0986 -4.9522 0
M  V30 479 C 7.7898 6.4017 -3.3067 0
M  V30 480 C 7.9082 9.3005 -5.4203 0
M  V30 481 C 8.7502 10.1842 -4.7604 0
M  V30 482 H 7.4589 9.5785 -6.3609 0
M  V30 483 H 8.9634 11.1519 -5.1851 0
M  V30 484 H 9.9786 10.4558 -3.0200 0
M  V30 485 N 7.0015 5.6344 -3.9829 0
M  V30 486 H 8.2376 6.0961 -2.3671 0
M  V30 487 C 10.2896 4.4733 -8.2341 0
M  V30 488 C 8.9649 4.2388 -8.5665 0
M  V30 489 C 7.9612 4.7919 -7.7713 0
M  V30 490 H 8.7134 3.6463 -9.4321 0
M  V30 491 N 8.2393 5.5328 -6.6869 0
M  V30 492 C 6.5658 4.5740 -8.0690 0
M  V30 493 C 9.5059 5.7367 -6.3647 0
M  V30 494 C 10.5665 5.2334 -7.1066 0
M  V30 495 H 9.6924 6.3262 -5.4804 0
M  V30 496 H 11.5832 5.4350 -6.8105 0
M  V30 497 H 11.0893 4.0721 -8.8374 0
M  V30 498 N 5.6472 5.0776 -7.3302 0
M  V30 499 H 6.3442 3.9296 -8.9151 0
M  V30 500 C 5.7667 8.9313 -10.0532 0
M  V30 501 C 4.8547 8.8222 -9.0189 0
M  V30 502 C 5.2470 8.1967 -7.8331 0
M  V30 503 H 3.8587 9.2223 -9.1221 0
M  V30 504 N 6.4742 7.6744 -7.6805 0
M  V30 505 C 4.3684 8.1282 -6.6983 0
M  V30 506 C 7.3485 7.8052 -8.6646 0
M  V30 507 C 7.0468 8.4253 -9.8677 0
M  V30 508 H 8.3378 7.4126 -8.4902 0
M  V30 509 H 7.7976 8.5132 -10.6363 0
M  V30 510 H 5.4990 9.4111 -10.9820 0
M  V30 511 N 4.6939 7.5411 -5.5946 0
M  V30 512 H 3.4078 8.6214 -6.8168 0
M  V30 513 Zn 4.2244 -5.4439 -6.1098 0 CHG=2
M  V30 514 C 5.5507 -4.5717 -10.7170 0
M  V30 515 C 5.3169 -3.5843 -9.7751 0
M  V30 516 C 5.0948 -3.9569 -8.4498 0
M  V30 517 H 5.3079 -2.5446 -10.0608 0
M  V30 518 N 5.0805 -5.2423 -8.0623 0
M  V30 519 C 4.9569 -2.9867 -7.3947 0
M  V30 520 C 5.3394 -6.1768 -8.9611 0
M  V30 521 C 5.5822 -5.8948 -10.2981 0
M  V30 522 H 5.3696 -7.1964 -8.6097 0
M  V30 523 H 5.7959 -6.6935 -10.9903 0
M  V30 524 H 5.7233 -4.3233 -11.7529 0
M  V30 525 N 4.5923 -3.3285 -6.2101 0
M  V30 526 H 5.2222 -1.9606 -7.6347 0
M  V30 527 C 8.3191 -5.3185 -3.5316 0
M  V30 528 C 7.0542 -5.2897 -2.9690 0
M  V30 529 C 5.9416 -5.3711 -3.8072 0
M  V30 530 H 6.9296 -5.2071 -1.9013 0
M  V30 531 N 6.0676 -5.4658 -5.1438 0
M  V30 532 C 4.5941 -5.3625 -3.2986 0
M  V30 533 C 7.2787 -5.5021 -5.6747 0
M  V30 534 C 8.4354 -5.4307 -4.9107 0
M  V30 535 H 7.3305 -5.5885 -6.7490 0
M  V30 536 H 9.4008 -5.4661 -5.3896 0
M  V30 537 H 9.2039 -5.2590 -2.9170 0
M  V30 538 N 3.5860 -5.3916 -4.1052 0
M  V30 539 H 4.4702 -5.3566 -2.2204 0
M  V30 540 C 3.9393 -10.1645 -7.1138 0
M  V30 541 C 3.1195 -9.2071 -7.6866 0
M  V30 542 C 3.2214 -7.8833 -7.2529 0
M  V30 543 H 2.4185 -9.4754 -8.4617 0
M  V30 544 N 4.0864 -7.5174 -6.2917 0
M  V30 545 C 2.3824 -6.8456 -7.7949 0
M  V30 546 C 4.8536 -8.4411 -5.7361 0
M  V30 547 C 4.8206 -9.7763 -6.1127 0
M  V30 548 H 5.5233 -8.1054 -4.9594 0
M  V30 549 H 5.4688 -10.4965 -5.6406 0
M  V30 550 H 3.8920 -11.1928 -7.4384 0
M  V30 551 N 2.4756 -5.6383 -7.3569 0
M  V30 552 H 1.6498 -7.1471 -8.5362 0
M  V30 553 Zn -7.2680 -4.3239 -6.7237 0 CHG=2
M  V30 554 C -9.0358 -7.3306 -3.3067 0
M  V30 555 C -8.2842 -6.1994 -3.0369 0
M  V30 556 C -7.9398 -5.3549 -4.0910 0
M  V30 557 H -7.9648 -5.9724 -2.0326 0
M  V30 558 N -8.2985 -5.6133 -5.3606 0
M  V30 559 C -7.2306 -4.1191 -3.8885 0
M  V30 560 C -9.0517 -6.6735 -5.6038 0
M  V30 561 C -9.4415 -7.5636 -4.6132 0
M  V30 562 H -9.3651 -6.8200 -6.6251 0
M  V30 563 H -10.0526 -8.4143 -4.8686 0
M  V30 564 H -9.3176 -8.0172 -2.5238 0
M  V30 565 N -6.9038 -3.3687 -4.8838 0
M  V30 566 H -7.0490 -3.8126 -2.8615 0
M  V30 567 C -11.2980 -2.4026 -8.5399 0
M  V30 568 C -10.0398 -2.2059 -9.0803 0
M  V30 569 C -8.9251 -2.7063 -8.4010 0
M  V30 570 H -9.9174 -1.6830 -10.0162 0
M  V30 571 N -9.0461 -3.3712 -7.2376 0
M  V30 572 C -7.5872 -2.5172 -8.8990 0
M  V30 573 C -10.2519 -3.5358 -6.7163 0
M  V30 574 C -11.4072 -3.0717 -7.3265 0
M  V30 575 H -10.2976 -4.0552 -5.7720 0
M  V30 576 H -12.3706 -3.2296 -6.8698 0
M  V30 577 H -12.1772 -2.0381 -9.0488 0
M  V30 578 N -6.5795 -3.0490 -8.2935 0
M  V30 579 H -7.4799 -1.9170 -9.7973 0
M  V30 580 C -7.7354 -8.3205 -9.4756 0
M  V30 581 C -6.8890 -8.2387 -8.3819 0
M  V30 582 C -6.7600 -7.0175 -7.7219 0
M  V30 583 H -6.3402 -9.1049 -8.0472 0
M  V30 584 N -7.4306 -5.9213 -8.1099 0
M  V30 585 C -5.8751 -6.8516 -6.5973 0
M  V30 586 C -8.2250 -6.0039 -9.1625 0
M  V30 587 C -8.4129 -7.1784 -9.8791 0
M  V30 588 H -8.7419 -5.1025 -9.4542 0
M  V30 589 H -9.0768 -7.1986 -10.7283 0
M  V30 590 H -7.8655 -9.2514 -10.0057 0
M  V30 591 N -5.7078 -5.6931 -6.0759 0
M  V30 592 H -5.3313 -7.7254 -6.2510 0
M  V30 593 Zn -5.0267 8.1987 -6.2423 0 CHG=2
M  V30 594 C -9.1362 9.5528 -4.0748 0
M  V30 595 C -7.9150 9.4899 -3.4246 0
M  V30 596 C -6.8040 9.0100 -4.1206 0
M  V30 597 H -7.8216 9.8128 -2.4001 0
M  V30 598 N -6.8910 8.6021 -5.4000 0
M  V30 599 C -5.5020 8.9151 -3.5056 0
M  V30 600 C -8.0629 8.6523 -6.0113 0
M  V30 601 C -9.2141 9.1205 -5.3919 0
M  V30 602 H -8.0914 8.3062 -7.0327 0
M  V30 603 H -10.1467 9.1473 -5.9319 0
M  V30 604 H -10.0143 9.9270 -3.5718 0
M  V30 605 N -4.4872 8.4696 -4.1657 0
M  V30 606 H -5.4248 9.2465 -2.4746 0
M  V30 607 C -3.9594 12.6952 -7.7430 0
M  V30 608 C -3.2795 11.5622 -8.1604 0
M  V30 609 C -3.5697 10.3405 -7.5539 0
M  V30 610 H -2.5427 11.6228 -8.9459 0
M  V30 611 N -4.4829 10.2284 -6.5771 0
M  V30 612 C -2.8627 9.1360 -7.9105 0
M  V30 613 C -5.1108 11.3180 -6.1680 0
M  V30 614 C -4.8871 12.5732 -6.7182 0
M  V30 615 H -5.8231 11.1928 -5.3675 0
M  V30 616 H -5.4275 13.4334 -6.3576 0
M  V30 617 H -3.7670 13.6529 -8.2016 0
M  V30 618 N -3.1443 8.0230 -7.3388 0
M  V30 619 H -2.0459 9.2411 -8.6178 0
M  V30 620 C -6.3272 7.9405 -10.9367 0
M  V30 621 C -6.0194 6.8515 -10.1424 0
M  V30 622 C -5.7757 7.0535 -8.7820 0
M  V30 623 H -5.9719 5.8607 -10.5655 0
M  V30 624 N -5.8122 8.2772 -8.2284 0
M  V30 625 C -5.5438 5.9574 -7.8840 0
M  V30 626 C -6.1474 9.3073 -8.9881 0
M  V30 627 C -6.4106 9.1945 -10.3443 0
M  V30 628 H -6.2230 10.2667 -8.5002 0
M  V30 629 H -6.6780 10.0657 -10.9203 0
M  V30 630 H -6.5157 7.8230 -11.9929 0
M  V30 631 N -5.3241 6.1503 -6.6271 0
M  V30 632 H -5.6395 4.9617 -8.3054 0
M  V30 END ATOM
M  V30 BEGIN BOND
M  V30 1 2 1 2
M  V30 2 1 2 3
M  V30 3 2 3 4
M  V30 4 1 4 5
M  V30 5 1 5 6
M  V30 6 2 6 7
M  V30 7 1 7 8
M  V30 8 2 8 9
M  V30 9 1 9 10
M  V30 10 2 10 11
M  V30 11 1 5 12
M  V30 12 2 12 13
M  V30 13 1 13 14
M  V30 14 2 14 15
M  V30 15 1 15 16
M  V30 16 1 16 17
M  V30 17 2 17 18
M  V30 18 1 18 19
M  V30 19 2 19 20
M  V30 20 1 20 21
M  V30 21 2 21 22
M  V30 22 1 16 23
M  V30 23 2 23 24
M  V30 24 1 24 25
M  V30 25 2 25 26
M  V30 26 1 26 27
M  V30 27 2 27 28
M  V30 28 1 15 29
M  V30 29 2 29 30
M  V30 30 1 4 31
M  V30 31 2 31 32
M  V30 32 1 32 1
M  V30 33 1 11 6
M  V30 34 1 30 12
M  V30 35 1 22 17
M  V30 36 1 28 23
M  V30 37 1 2 33
M  V30 38 1 3 34
M  V30 39 1 7 35
M  V30 40 1 8 36
M  V30 41 1 10 37
M  V30 42 1 11 38
M  V30 43 1 13 39
M  V30 44 1 14 40
M  V30 45 1 18 41
M  V30 46 1 19 42
M  V30 47 1 21 43
M  V30 48 1 22 44
M  V30 49 1 24 45
M  V30 50 1 25 46
M  V30 51 1 27 47
M  V30 52 1 28 48
M  V30 53 1 29 49
M  V30 54 1 30 50
M  V30 55 1 31 51
M  V30 56 1 32 52
M  V30 57 2 53 54
M  V30 58 1 54 55
M  V30 59 2 55 56
M  V30 60 1 56 57
M  V30 61 1 57 58
M  V30 62 2 58 59
M  V30 63 1 59 60
M  V30 64 2 60 61
M  V30 65 1 61 62
M  V30 66 2 62 63
M  V30 67 1 57 64
M  V30 68 2 64 65
M  V30 69 1 65 66
M  V30 70 2 66 67
M  V30 71 1 67 68
M  V30 72 1 68 69
M  V30 73 2 69 70
M  V30 74 1 70 71
M  V30 75 2 71 72
M  V30 76 1 72 73
M  V30 77 2 73 74
M  V30 78 1 68 75
M  V30 79 2 75 76
M  V30 80 1 76 77
M  V30 81 2 77 78
M  V30 82 1 78 79
M  V30 83 2 79 80
M  V30 84 1 67 81
M  V30 85 2 81 82
M  V30 86 1 56 83
M  V30 87 2 83 84
M  V30 88 1 84 53
M  V30 89 1 63 58
M  V30 90 1 82 64
M  V30 91 1 74 69
M  V30 92 1 80 75
M  V30 93 1 54 85
M  V30 94 1 55 86
M  V30 95 1 59 87
M  V30 96 1 60 88
M  V30 97 1 62 89
M  V30 98 1 63 90
M  V30 99 1 65 91
M  V30 100 1 66 92
M  V30 101 1 70 93
M  V30 102 1 71 94
M  V30 103 1 73 95
M  V30 104 1 74 96
M  V30 105 1 76 97
M  V30 106 1 77 98
M  V30 107 1 79 99
M  V30 108 1 80 100
M  V30 109 1 81 101
M  V30 110 1 82 102
M  V30 111 1 83 103
M  V30 112 1 84 104
M  V30 113 2 105 106
M  V30 114 1 106 107
M  V30 115 2 107 108
M  V30 116 1 108 109
M  V30 117 1 109 110
M  V30 118 2 110 111
M  V30 119 1 111 112
M  V30 120 2 112 113
M  V30 121 1 113 114
M  V30 122 2 114 115
M  V30 123 1 109 116
M  V30 124 2 116 117
M  V30 125 1 117 118
M  V30 126 2 118 119
M  V30 127 1 119 120
M  V30 128 1 120 121
M  V30 129 2 121 122
M  V30 130 1 122 123
M  V30 131 2 123 124
M  V30 132 1 124 125
M  V30 133 2 125 126
M  V30 134 1 120 127
M  V30 135 2 127 128
M  V30 136 1 128 129
M  V30 137 2 129 130
M  V30 138 1 130 131
M  V30 139 2 131 132
M  V30 140 1 119 133
M  V30 141 2 133 134
M  V30 142 1 108 135
M  V30 143 2 135 136
M  V30 144 1 136 105
M  V30 145 1 115 110
M  V30 146 1 134 116
M  V30 147 1 126 121
M  V30 148 1 132 127
M  V30 149 1 106 137
M  V30 150 1 107 138
M  V30 151 1 111 139
M  V30 152 1 112 140
M  V30 153 1 114 141
M  V30 154 1 115 142
M  V30 155 1 117 143
M  V30 156 1 118 144
M  V30 157 1 122 145
M  V30 158 1 123 146
M  V30 159 1 125 147
M  V30 160 1 126 148
M  V30 161 1 128 149
M  V30 162 1 129 150
M  V30 163 1 131 151
M  V30 164 1 132 152
M  V30 165 1 133 153
M  V30 166 1 134 154
M  V30 167 1 135 155
M  V30 168 1 136 156
M  V30 169 2 157 158
M  V30 170 1 158 159
M  V30 171 2 159 160
M  V30 172 1 160 161
M  V30 173 1 161 162
M  V30 174 2 162 163
M  V30 175 1 163 164
M  V30 176 2 164 165
M  V30 177 1 165 166
M  V30 178 2 166 167
M  V30 179 1 161 168
M  V30 180 2 168 169
M  V30 181 1 169 170
M  V30 182 2 170 171
M  V30 183 1 171 172
M  V30 184 1 172 173
M  V30 185 2 173 174
M  V30 186 1 174 175
M  V30 187 2 175 176
M  V30 188 1 176 177
M  V30 189 2 177 178
M  V30 190 1 172 179
M  V30 191 2 179 180
M  V30 192 1 180 181
M  V30 193 2 181 182
M  V30 194 1 182 183
M  V30 195 2 183 184
M  V30 196 1 171 185
M  V30 197 2 185 186
M  V30 198 1 160 187
M  V30 199 2 187 188
M  V30 200 1 188 157
M  V30 201 1 167 162
M  V30 202 1 186 168
M  V30 203 1 178 173
M  V30 204 1 184 179
M  V30 205 1 158 189
M  V30 206 1 159 190
M  V30 207 1 163 191
M  V30 208 1 164 192
M  V30 209 1 166 193
M  V30 210 1 167 194
M  V30 211 1 169 195
M  V30 212 1 170 196
M  V30 213 1 174 197
M  V30 214 1 175 198
M  V30 215 1 177 199
M  V30 216 1 178 200
M  V30 217 1 180 201
M  V30 218 1 181 202
M  V30 219 1 183 203
M  V30 220 1 184 204
M  V30 221 1 185 205
M  V30 222 1 186 206
M  V30 223 1 187 207
M  V30 224 1 188 208
M  V30 225 2 209 210
M  V30 226 1 210 211
M  V30 227 2 211 212
M  V30 228 1 212 213
M  V30 229 1 213 214
M  V30 230 2 214 215
M  V30 231 1 215 216
M  V30 232 2 216 217
M  V30 233 1 217 218
M  V30 234 2 218 219
M  V30 235 1 213 220
M  V30 236 2 220 221
M  V30 237 1 221 222
M  V30 238 2 222 223
M  V30 239 1 223 224
M  V30 240 1 224 225
M  V30 241 2 225 226
M  V30 242 1 226 227
M  V30 243 2 227 228
M  V30 244 1 228 229
M  V30 245 2 229 230
M  V30 246 1 224 231
M  V30 247 2 231 232
M  V30 248 1 232 233
M  V30 249 2 233 234
M  V30 250 1 234 235
M  V30 251 2 235 236
M  V30 252 1 223 237
M  V30 253 2 237 238
M  V30 254 1 212 239
M  V30 255 2 239 240
M  V30 256 1 240 209
M  V30 257 1 219 214
M  V30 258 1 238 220
M  V30 259 1 230 225
M  V30 260 1 236 231
M  V30 261 1 210 241
M  V30 262 1 211 242
M  V30 263 1 215 243
M  V30 264 1 216 244
M  V30 265 1 218 245
M  V30 266 1 219 246
M  V30 267 1 221 247
M  V30 268 1 222 248
M  V30 269 1 226 249
M  V30 270 1 227 250
M  V30 271 1 229 251
M  V30 272 1 230 252
M  V30 273 1 232 253
M  V30 274 1 233 254
M  V30 275 1 235 255
M  V30 276 1 236 256
M  V30 277 1 237 257
M  V30 278 1 238 258
M  V30 279 1 239 259
M  V30 280 1 240 260
M  V30 281 2 261 262
M  V30 282 1 262 263
M  V30 283 2 263 264
M  V30 284 1 264 265
M  V30 285 1 265 266
M  V30 286 2 266 267
M  V30 287 1 267 268
M  V30 288 2 268 269
M  V30 289 1 269 270
M  V30 290 2 270 271
M  V30 291 1 265 272
M  V30 292 2 272 273
M  V30 293 1 273 274
M  V30 294 2 274 275
M  V30 295 1 275 276
M  V30 296 1 276 277
M  V30 297 2 277 278
M  V30 298 1 278 279
M  V30 299 2 279 280
M  V30 300 1 280 281
M  V30 301 2 281 282
M  V30 302 1 276 283
M  V30 303 2 283 284
M  V30 304 1 284 285
M  V30 305 2 285 286
M  V30 306 1 286 287
M  V30 307 2 287 288
M  V30 308 1 275 289
M  V30 309 2 289 290
M  V30 310 1 264 291
M  V30 311 2 291 292
M  V30 312 1 292 261
M  V30 313 1 271 266
M  V30 314 1 290 272
M  V30 315 1 282 277
M  V30 316 1 288 283
M  V30 317 1 262 293
M  V30 318 1 263 294
M  V30 319 1 267 295
M  V30 320 1 268 296
M  V30 321 1 270 297
M  V30 322 1 271 298
M  V30 323 1 273 299
M  V30 324 1 274 300
M  V30 325 1 278 301
M  V30 326 1 279 302
M  V30 327 1 281 303
M  V30 328 1 282 304
M  V30 329 1 284 305
M  V30 330 1 285 306
M  V30 331 1 287 307
M  V30 332 1 288 308
M  V30 333 1 289 309
M  V30 334 1 290 310
M  V30 335 1 291 311
M  V30 336 1 292 312
M  V30 337 1 314 324
M  V30 338 2 314 321
M  V30 339 1 315 314
M  V30 340 2 316 315
M  V30 341 1 316 318
M  V30 342 1 317 315
M  V30 343 2 318 320
M  V30 344 1 319 316
M  V30 345 1 320 321
M  V30 346 1 320 322
M  V30 347 1 321 323
M  V30 348 2 325 319
M  V30 349 1 326 319
M  V30 350 1 327 337
M  V30 351 2 327 334
M  V30 352 1 328 327
M  V30 353 2 329 328
M  V30 354 1 329 331
M  V30 355 1 330 328
M  V30 356 2 331 333
M  V30 357 1 332 329
M  V30 358 1 333 334
M  V30 359 1 333 335
M  V30 360 1 334 336
M  V30 361 2 338 332
M  V30 362 1 339 332
M  V30 363 1 340 350
M  V30 364 2 340 347
M  V30 365 1 341 340
M  V30 366 2 342 341
M  V30 367 1 342 344
M  V30 368 1 343 341
M  V30 369 2 344 346
M  V30 370 1 345 342
M  V30 371 1 346 347
M  V30 372 1 346 348
M  V30 373 1 347 349
M  V30 374 2 351 345
M  V30 375 1 352 345
M  V30 376 9 325 313
M  V30 377 9 318 313
M  V30 378 9 338 313
M  V30 379 9 331 313
M  V30 380 9 351 313
M  V30 381 9 344 313
M  V30 382 1 354 364
M  V30 383 2 354 361
M  V30 384 1 355 354
M  V30 385 2 356 355
M  V30 386 1 356 358
M  V30 387 1 357 355
M  V30 388 2 358 360
M  V30 389 1 359 356
M  V30 390 1 360 361
M  V30 391 1 360 362
M  V30 392 1 361 363
M  V30 393 2 365 359
M  V30 394 1 366 359
M  V30 395 1 367 377
M  V30 396 2 367 374
M  V30 397 1 368 367
M  V30 398 2 369 368
M  V30 399 1 369 371
M  V30 400 1 370 368
M  V30 401 2 371 373
M  V30 402 1 372 369
M  V30 403 1 373 374
M  V30 404 1 373 375
M  V30 405 1 374 376
M  V30 406 2 378 372
M  V30 407 1 379 372
M  V30 408 1 380 390
M  V30 409 2 380 387
M  V30 410 1 381 380
M  V30 411 2 382 381
M  V30 412 1 382 384
M  V30 413 1 383 381
M  V30 414 2 384 386
M  V30 415 1 385 382
M  V30 416 1 386 387
M  V30 417 1 386 388
M  V30 418 1 387 389
M  V30 419 2 391 385
M  V30 420 1 392 385
M  V30 421 9 365 353
M  V30 422 9 358 353
M  V30 423 9 378 353
M  V30 424 9 371 353
M  V30 425 9 391 353
M  V30 426 9 384 353
M  V30 427 1 394 404
M  V30 428 2 394 401
M  V30 429 1 395 394
M  V30 430 2 396 395
M  V30 431 1 396 398
M  V30 432 1 397 395
M  V30 433 2 398 400
M  V30 434 1 399 396
M  V30 435 1 400 401
M  V30 436 1 400 402
M  V30 437 1 401 403
M  V30 438 2 405 399
M  V30 439 1 406 399
M  V30 440 1 407 417
M  V30 441 2 407 414
M  V30 442 1 408 407
M  V30 443 2 409 408
M  V30 444 1 409 411
M  V30 445 1 410 408
M  V30 446 2 411 413
M  V30 447 1 412 409
M  V30 448 1 413 414
M  V30 449 1 413 415
M  V30 450 1 414 416
M  V30 451 2 418 412
M  V30 452 1 419 412
M  V30 453 1 420 430
M  V30 454 2 420 427
M  V30 455 1 421 420
M  V30 456 2 422 421
M  V30 457 1 422 424
M  V30 458 1 423 421
M  V30 459 2 424 426
M  V30 460 1 425 422
M  V30 461 1 426 427
M  V30 462 1 426 428
M  V30 463 1 427 429
M  V30 464 2 431 425
M  V30 465 1 432 425
M  V30 466 9 405 393
M  V30 467 9 398 393
M  V30 468 9 418 393
M  V30 469 9 411 393
M  V30 470 9 431 393
M  V30 471 9 424 393
M  V30 472 1 434 444
M  V30 473 2 434 441
M  V30 474 1 435 434
M  V30 475 2 436 435
M  V30 476 1 436 438
M  V30 477 1 437 435
M  V30 478 2 438 440
M  V30 479 1 439 436
M  V30 480 1 440 441
M  V30 481 1 440 442
M  V30 482 1 441 443
M  V30 483 2 445 439
M  V30 484 1 446 439
M  V30 485 1 447 457
M  V30 486 2 447 454
M  V30 487 1 448 447
M  V30 488 2 449 448
M  V30 489 1 449 451
M  V30 490 1 450 448
M  V30 491 2 451 453
M  V30 492 1 452 449
M  V30 493 1 453 454
M  V30 494 1 453 455
M  V30 495 1 454 456
M  V30 496 2 458 452
M  V30 497 1 459 452
M  V30 498 1 460 470
M  V30 499 2 460 467
M  V30 500 1 461 460
M  V30 501 2 462 461
M  V30 502 1 462 464
M  V30 503 1 463 461
M  V30 504 2 464 466
M  V30 505 1 465 462
M  V30 506 1 466 467
M  V30 507 1 466 468
M  V30 508 1 467 469
M  V30 509 2 471 465
M  V30 510 1 472 465
M  V30 511 9 445 433
M  V30 512 9 438 433
M  V30 513 9 458 433
M  V30 514 9 451 433
M  V30 515 9 471 433
M  V30 516 9 464 433
M  V30 517 1 474 484
M  V30 518 2 474 481
M  V30 519 1 475 474
M  V30 520 2 476 475
M  V30 521 1 476 478
M  V30 522 1 477 475
M  V30 523 2 478 480
M  V30 524 1 479 476
M  V30 525 1 480 481
M  V30 526 1 480 482
M  V30 527 1 481 483
M  V30 528 2 485 479
M  V30 529 1 486 479
M  V30 530 1 487 497
M  V30 531 2 487 494
M  V30 532 1 488 487
M  V30 533 2 489 488
M  V30 534 1 489 491
M  V30 535 1 490 488
M  V30 536 2 491 493
M  V30 537 1 492 489
M  V30 538 1 493 494
M  V30 539 1 493 495
M  V30 540 1 494 496
M  V30 541 2 498 492
M  V30 542 1 499 492
M  V30 543 1 500 510
M  V30 544 2 500 507
M  V30 545 1 501 500
M  V30 546 2 502 501
M  V30 547 1 502 504
M  V30 548 1 503 501
M  V30 549 2 504 506
M  V30 550 1 505 502
M  V30 551 1 506 507
M  V30 552 1 506 508
M  V30 553 1 507 509
M  V30 554 2 511 505
M  V30 555 1 512 505
M  V30 556 9 485 473
M  V30 557 9 478 473
M  V30 558 9 511 473
M  V30 559 9 504 473
M  V30 560 9 498 473
M  V30 561 9 491 473
M  V30 562 1 514 524
M  V30 563 2 514 521
M  V30 564 1 515 514
M  V30 565 2 516 515
M  V30 566 1 516 518
M  V30 567 1 517 515
M  V30 568 2 518 520
M  V30 569 1 519 516
M  V30 570 1 520 521
M  V30 571 1 520 522
M  V30 572 1 521 523
M  V30 573 2 525 519
M  V30 574 1 526 519
M  V30 575 1 527 537
M  V30 576 2 527 534
M  V30 577 1 528 527
M  V30 578 2 529 528
M  V30 579 1 529 531
M  V30 580 1 530 528
M  V30 581 2 531 533
M  V30 582 1 532 529
M  V30 583 1 533 534
M  V30 584 1 533 535
M  V30 585 1 534 536
M  V30 586 2 538 532
M  V30 587 1 539 532
M  V30 588 1 540 550
M  V30 589 2 540 547
M  V30 590 1 541 540
M  V30 591 2 542 541
M  V30 592 1 542 544
M  V30 593 1 543 541
M  V30 594 2 544 546
M  V30 595 1 545 542
M  V30 596 1 546 547
M  V30 597 1 546 548
M  V30 598 1 547 549
M  V30 599 2 551 545
M  V30 600 1 552 545
M  V30 601 9 525 513
M  V30 602 9 518 513
M  V30 603 9 551 513
M  V30 604 9 544 513
M  V30 605 9 538 513
M  V30 606 9 531 513
M  V30 607 1 554 564
M  V30 608 2 554 561
M  V30 609 1 555 554
M  V30 610 2 556 555
M  V30 611 1 556 558
M  V30 612 1 557 555
M  V30 613 2 558 560
M  V30 614 1 559 556
M  V30 615 1 560 561
M  V30 616 1 560 562
M  V30 617 1 561 563
M  V30 618 2 565 559
M  V30 619 1 566 559
M  V30 620 1 567 577
M  V30 621 2 567 574
M  V30 622 1 568 567
M  V30 623 2 569 568
M  V30 624 1 569 571
M  V30 625 1 570 568
M  V30 626 2 571 573
M  V30 627 1 572 569
M  V30 628 1 573 574
M  V30 629 1 573 575
M  V30 630 1 574 576
M  V30 631 2 578 572
M  V30 632 1 579 572
M  V30 633 1 580 590
M  V30 634 2 580 587
M  V30 635 1 581 580
M  V30 636 2 582 581
M  V30 637 1 582 584
M  V30 638 1 583 581
M  V30 639 2 584 586
M  V30 640 1 585 582
M  V30 641 1 586 587
M  V30 642 1 586 588
M  V30 643 1 587 589
M  V30 644 2 591 585
M  V30 645 1 592 585
M  V30 646 9 565 553
M  V30 647 9 558 553
M  V30 648 9 591 553
M  V30 649 9 584 553
M  V30 650 9 578 553
M  V30 651 9 571 553
M  V30 652 1 594 604
M  V30 653 2 594 601
M  V30 654 1 595 594
M  V30 655 2 596 595
M  V30 656 1 596 598
M  V30 657 1 597 595
M  V30 658 2 598 600
M  V30 659 1 599 596
M  V30 660 1 600 601
M  V30 661 1 600 602
M  V30 662 1 601 603
M  V30 663 2 605 599
M  V30 664 1 606 599
M  V30 665 1 607 617
M  V30 666 2 607 614
M  V30 667 1 608 607
M  V30 668 2 609 608
M  V30 669 1 609 611
M  V30 670 1 610 608
M  V30 671 2 611 613
M  V30 672 1 612 609
M  V30 673 1 613 614
M  V30 674 1 613 615
M  V30 675 1 614 616
M  V30 676 2 618 612
M  V30 677 1 619 612
M  V30 678 1 620 630
M  V30 679 2 620 627
M  V30 680 1 621 620
M  V30 681 2 622 621
M  V30 682 1 622 624
M  V30 683 1 623 621
M  V30 684 2 624 626
M  V30 685 1 625 622
M  V30 686 1 626 627
M  V30 687 1 626 628
M  V30 688 1 627 629
M  V30 689 2 631 625
M  V30 690 1 632 625
M  V30 691 9 605 593
M  V30 692 9 598 593
M  V30 693 9 631 593
M  V30 694 9 624 593
M  V30 695 9 618 593
M  V30 696 9 611 593
M  V30 697 1 1 325
M  V30 698 1 9 365
M  V30 699 1 20 405
M  V30 700 1 26 445
M  V30 701 1 53 485
M  V30 702 1 61 525
M  V30 703 1 72 378
M  V30 704 1 78 351
M  V30 705 1 113 511
M  V30 706 1 124 338
M  V30 707 1 130 471
M  V30 708 1 105 605
M  V30 709 1 157 458
M  V30 710 1 165 431
M  V30 711 1 176 565
M  V30 712 1 182 631
M  V30 713 1 217 551
M  V30 714 1 228 498
M  V30 715 1 234 618
M  V30 716 1 209 578
M  V30 717 1 269 391
M  V30 718 1 280 538
M  V30 719 1 286 591
M  V30 720 1 261 418
M  V30 END BOND
M  V30 END CTAB
M  END

$$$$
