
     RDKit          3D

  0  0  0  0  0  0  0  0  0  0999 V3000
M  V30 BEGIN CTAB
M  V30 COUNTS 608 696 0 0 0
M  V30 BEGIN ATOM
M  V30 1 C -3.2233 -3.3400 6.6210 0
M  V30 2 C -2.7462 -2.9812 5.3597 0
M  V30 3 C -1.5302 -2.3372 5.2541 0
M  V30 4 C -0.7509 -2.0958 6.3876 0
M  V30 5 C 0.2297 -0.9880 6.3707 0
M  V30 6 C -0.3959 0.2501 6.2609 0
M  V30 7 C 0.2705 1.4690 6.3713 0
M  V30 8 C -0.6864 2.6018 6.3958 0
M  V30 9 C -1.4334 2.7469 7.5681 0
M  V30 10 C -2.6685 3.3544 7.5397 0
M  V30 11 C -3.1734 3.8577 6.3337 0
M  V30 12 C -2.3239 3.9310 5.2278 0
M  V30 13 C -1.1008 3.2813 5.2527 0
M  V30 14 C 1.6528 1.4447 6.5151 0
M  V30 15 C 2.6046 2.5775 6.5829 0
M  V30 16 C 3.4290 2.8034 5.4800 0
M  V30 17 C 4.5317 3.6276 5.5831 0
M  V30 18 C 4.8567 4.1919 6.8167 0
M  V30 19 C 4.0016 4.0238 7.9060 0
M  V30 20 C 2.8697 3.2387 7.7790 0
M  V30 21 C 2.2826 0.2077 6.6115 0
M  V30 22 C 1.6055 -1.0107 6.5883 0
M  V30 23 C 2.4798 -2.1814 6.7496 0
M  V30 24 C 3.3872 -2.1618 7.8163 0
M  V30 25 C 4.4883 -2.9838 7.8272 0
M  V30 26 C 4.7196 -3.8485 6.7458 0
M  V30 27 C 3.6921 -4.0295 5.8110 0
M  V30 28 C 2.5889 -3.1972 5.8005 0
M  V30 29 C -1.1377 -2.6535 7.6055 0
M  V30 30 C -2.3778 -3.2474 7.7300 0
M  V30 31 H -3.3805 -3.1062 4.4991 0
M  V30 32 H -1.2073 -1.9576 4.2979 0
M  V30 33 H -1.4665 0.2683 6.1297 0
M  V30 34 H -1.0796 2.3109 8.4899 0
M  V30 35 H -3.2584 3.4268 8.4408 0
M  V30 36 H -2.6618 4.4154 4.3262 0
M  V30 37 H -0.5031 3.2340 4.3575 0
M  V30 38 H 3.2191 2.3065 4.5464 0
M  V30 39 H 5.1958 3.7842 4.7491 0
M  V30 40 H 4.2286 4.5092 8.8437 0
M  V30 41 H 2.2276 3.0983 8.6346 0
M  V30 42 H 3.3552 0.1941 6.7280 0
M  V30 43 H 3.2398 -1.4688 8.6308 0
M  V30 44 H 5.1653 -2.9470 8.6661 0
M  V30 45 H 3.8119 -4.7999 5.0637 0
M  V30 46 H 1.8471 -3.2890 5.0235 0
M  V30 47 H -0.5126 -2.5437 8.4782 0
M  V30 48 H -2.7103 -3.6219 8.6865 0
M  V30 49 C 7.2131 4.7494 3.5006 0
M  V30 50 C 6.3852 4.6819 2.3780 0
M  V30 51 C 6.2945 3.5060 1.6734 0
M  V30 52 C 7.0824 2.3978 2.0127 0
M  V30 53 C 7.1872 1.3711 0.9595 0
M  V30 54 C 7.4037 1.9169 -0.3072 0
M  V30 55 C 7.4161 1.1843 -1.4890 0
M  V30 56 C 7.6336 2.0047 -2.6878 0
M  V30 57 C 8.6990 2.9145 -2.6647 0
M  V30 58 C 8.7424 3.9831 -3.5276 0
M  V30 59 C 7.6942 4.1806 -4.4410 0
M  V30 60 C 6.7586 3.1504 -4.6039 0
M  V30 61 C 6.7167 2.0774 -3.7361 0
M  V30 62 C 7.1267 -0.1790 -1.4143 0
M  V30 63 C 7.0670 -1.1551 -2.5156 0
M  V30 64 C 5.9938 -2.0510 -2.5428 0
M  V30 65 C 6.0536 -3.1998 -3.3022 0
M  V30 66 C 7.2134 -3.4906 -4.0228 0
M  V30 67 C 8.2305 -2.5363 -4.1041 0
M  V30 68 C 8.1437 -1.3650 -3.3749 0
M  V30 69 C 6.9952 -0.7389 -0.1466 0
M  V30 70 C 7.0716 -0.0149 1.0433 0
M  V30 71 C 7.1014 -0.9383 2.2041 0
M  V30 72 C 8.3087 -1.6199 2.3925 0
M  V30 73 C 8.3225 -2.8704 2.9677 0
M  V30 74 C 7.1249 -3.4528 3.4027 0
M  V30 75 C 5.9781 -2.6573 3.4635 0
M  V30 76 C 5.9607 -1.4202 2.8407 0
M  V30 77 C 7.8151 2.4379 3.1949 0
M  V30 78 C 7.8623 3.6009 3.9506 0
M  V30 79 H 5.8222 5.5522 2.0828 0
M  V30 80 H 5.6389 3.4518 0.8200 0
M  V30 81 H 7.5788 2.9788 -0.3775 0
M  V30 82 H 9.4868 2.7949 -1.9363 0
M  V30 83 H 9.5764 4.6638 -3.4695 0
M  V30 84 H 6.0407 3.2459 -5.4049 0
M  V30 85 H 5.9438 1.3309 -3.8249 0
M  V30 86 H 5.1294 -1.8600 -1.9270 0
M  V30 87 H 5.2684 -3.9367 -3.2484 0
M  V30 88 H 9.0926 -2.7257 -4.7261 0
M  V30 89 H 8.9554 -0.6552 -3.4151 0
M  V30 90 H 6.8634 -1.8074 -0.0768 0
M  V30 91 H 9.2271 -1.2079 2.0022 0
M  V30 92 H 9.2490 -3.4175 3.0574 0
M  V30 93 H 5.0774 -3.0470 3.9078 0
M  V30 94 H 5.0380 -0.8666 2.7790 0
M  V30 95 H 8.3993 1.5858 3.5048 0
M  V30 96 H 8.4711 3.6536 4.8396 0
M  V30 97 C -3.1402 7.1676 -4.3914 0
M  V30 98 C -3.0446 5.9960 -3.6379 0
M  V30 99 C -2.3679 6.0027 -2.4340 0
M  V30 100 C -1.8086 7.1819 -1.9439 0
M  V30 101 C -0.7148 7.1261 -0.9473 0
M  V30 102 C 0.5403 7.0478 -1.5409 0
M  V30 103 C 1.7406 6.9389 -0.8373 0
M  V30 104 C 2.8888 6.8773 -1.7700 0
M  V30 105 C 3.0405 7.9798 -2.6187 0
M  V30 106 C 3.6428 7.8398 -3.8471 0
M  V30 107 C 4.1423 6.5917 -4.2425 0
M  V30 108 C 4.2217 5.5686 -3.2964 0
M  V30 109 C 3.5751 5.7041 -2.0779 0
M  V30 110 C 1.6746 6.8834 0.5534 0
M  V30 111 C 2.7433 6.7351 1.5612 0
M  V30 112 C 2.4859 5.8174 2.5873 0
M  V30 113 C 3.1570 5.8880 3.7855 0
M  V30 114 C 4.1656 6.8365 3.9592 0
M  V30 115 C 4.5447 7.6399 2.8839 0
M  V30 116 C 3.8229 7.6024 1.6990 0
M  V30 117 C 0.4189 7.0324 1.1445 0
M  V30 118 C -0.7747 7.1588 0.4406 0
M  V30 119 C -1.9430 7.3042 1.3309 0
M  V30 120 C -1.9504 8.4057 2.1937 0
M  V30 121 C -2.7126 8.4044 3.3389 0
M  V30 122 C -3.4832 7.2756 3.6582 0
M  V30 123 C -3.6505 6.2885 2.6800 0
M  V30 124 C -2.8770 6.2901 1.5345 0
M  V30 125 C -2.0685 8.3797 -2.6091 0
M  V30 126 C -2.7223 8.3768 -3.8236 0
M  V30 127 H -3.4256 5.0722 -4.0391 0
M  V30 128 H -2.2102 5.0765 -1.9058 0
M  V30 129 H 0.5841 7.0579 -2.6189 0
M  V30 130 H 2.6103 8.9316 -2.3455 0
M  V30 131 H 3.7108 8.6817 -4.5197 0
M  V30 132 H 4.7012 4.6402 -3.5598 0
M  V30 133 H 3.5253 4.8654 -1.4031 0
M  V30 134 H 1.7097 5.0819 2.4538 0
M  V30 135 H 2.9093 5.2270 4.5989 0
M  V30 136 H 5.3315 8.3655 3.0177 0
M  V30 137 H 4.0667 8.3004 0.9135 0
M  V30 138 H 0.3648 7.0643 2.2214 0
M  V30 139 H -1.3157 9.2531 1.9829 0
M  V30 140 H -2.7003 9.2697 3.9831 0
M  V30 141 H -4.3527 5.4920 2.8714 0
M  V30 142 H -2.9471 5.4744 0.8337 0
M  V30 143 H -1.7081 9.3133 -2.2044 0
M  V30 144 H -2.9055 9.3066 -4.3406 0
M  V30 145 C -6.3002 4.2300 -4.2664 0
M  V30 146 C -7.4263 3.9392 -3.4848 0
M  V30 147 C -7.5022 2.7432 -2.8083 0
M  V30 148 C -6.4676 1.8055 -2.8875 0
M  V30 149 C -6.4300 0.7669 -1.8393 0
M  V30 150 C -6.3741 1.2854 -0.5453 0
M  V30 151 C -6.4481 0.5078 0.6037 0
M  V30 152 C -6.5145 1.3445 1.8253 0
M  V30 153 C -7.7517 1.8411 2.2368 0
M  V30 154 C -7.8234 2.9790 3.0125 0
M  V30 155 C -6.6490 3.6303 3.4103 0
M  V30 156 C -5.4221 2.9982 3.1921 0
M  V30 157 C -5.3538 1.8841 2.3793 0
M  V30 158 C -6.5438 -0.8799 0.4704 0
M  V30 159 C -6.7318 -1.8359 1.5707 0
M  V30 160 C -7.5537 -2.9452 1.3331 0
M  V30 161 C -7.6758 -3.9608 2.2510 0
M  V30 162 C -6.9960 -3.8933 3.4748 0
M  V30 163 C -6.2309 -2.7518 3.7472 0
M  V30 164 C -6.0988 -1.7415 2.8125 0
M  V30 165 C -6.5175 -1.3976 -0.8244 0
M  V30 166 C -6.4950 -0.6158 -1.9789 0
M  V30 167 C -6.6913 -1.4402 -3.1938 0
M  V30 168 C -7.9335 -2.0796 -3.2882 0
M  V30 169 C -8.0663 -3.2513 -3.9944 0
M  V30 170 C -6.9511 -3.8003 -4.6464 0
M  V30 171 C -5.8190 -2.9953 -4.8116 0
M  V30 172 C -5.6750 -1.8426 -4.0571 0
M  V30 173 C -5.4371 2.0254 -3.7983 0
M  V30 174 C -5.3629 3.2190 -4.4940 0
M  V30 175 H -8.2375 4.6482 -3.4194 0
M  V30 176 H -8.3594 2.5439 -2.1836 0
M  V30 177 H -6.3136 2.3568 -0.4321 0
M  V30 178 H -8.6629 1.3771 1.8920 0
M  V30 179 H -8.7864 3.3740 3.2984 0
M  V30 180 H -4.5230 3.4346 3.5933 0
M  V30 181 H -4.3935 1.4681 2.1186 0
M  V30 182 H -8.1105 -3.0194 0.4129 0
M  V30 183 H -8.2601 -4.8277 1.9890 0
M  V30 184 H -5.7475 -2.6798 4.7115 0
M  V30 185 H -5.4799 -0.8877 3.0350 0
M  V30 186 H -6.5306 -2.4682 -0.9515 0
M  V30 187 H -8.7793 -1.6926 -2.7406 0
M  V30 188 H -9.0189 -3.7579 -4.0288 0
M  V30 189 H -5.0270 -3.3282 -5.4648 0
M  V30 190 H -4.7417 -1.3045 -4.0829 0
M  V30 191 H -4.6564 1.2922 -3.9150 0
M  V30 192 H -4.5416 3.4019 -5.1676 0
M  V30 193 C -3.7915 3.7950 -7.8877 0
M  V30 194 C -3.5921 2.9043 -8.9539 0
M  V30 195 C -2.5285 2.0327 -8.9287 0
M  V30 196 C -1.6322 2.0180 -7.8531 0
M  V30 197 C -0.7744 0.8472 -7.6447 0
M  V30 198 C -1.3773 -0.3919 -7.8381 0
M  V30 199 C -0.7367 -1.6049 -7.5905 0
M  V30 200 C -1.5970 -2.7761 -7.8137 0
M  V30 201 C -2.3128 -2.8509 -9.0151 0
M  V30 202 C -3.4357 -3.6357 -9.1271 0
M  V30 203 C -3.8936 -4.3611 -8.0141 0
M  V30 204 C -3.0427 -4.4655 -6.9056 0
M  V30 205 C -1.9137 -3.6773 -6.7964 0
M  V30 206 C 0.5597 -1.5784 -7.0699 0
M  V30 207 C 1.5075 -2.7039 -6.9575 0
M  V30 208 C 2.2710 -2.8724 -5.7990 0
M  V30 209 C 3.4568 -3.5767 -5.8372 0
M  V30 210 C 3.9298 -4.0700 -7.0549 0
M  V30 211 C 3.0888 -4.0541 -8.1723 0
M  V30 212 C 1.8742 -3.4000 -8.1112 0
M  V30 213 C 1.1489 -0.3364 -6.8309 0
M  V30 214 C 0.5322 0.8706 -7.1447 0
M  V30 215 C 1.4399 2.0324 -7.1359 0
M  V30 216 C 1.7728 2.6227 -8.3565 0
M  V30 217 C 2.9410 3.3452 -8.4796 0
M  V30 218 C 3.7633 3.5433 -7.3660 0
M  V30 219 C 3.3076 3.1535 -6.1055 0
M  V30 220 C 2.1764 2.3702 -5.9998 0
M  V30 221 C -1.7131 3.0436 -6.9078 0
M  V30 222 C -2.7711 3.9292 -6.9373 0
M  V30 223 H -4.2610 2.8943 -9.8001 0
M  V30 224 H -2.4001 1.3410 -9.7472 0
M  V30 225 H -2.4018 -0.4175 -8.1742 0
M  V30 226 H -2.0000 -2.2597 -9.8627 0
M  V30 227 H -3.9577 -3.6626 -10.0703 0
M  V30 228 H -3.3248 -5.1434 -6.1145 0
M  V30 229 H -1.3152 -3.7037 -5.9000 0
M  V30 230 H 1.9556 -2.4035 -4.8805 0
M  V30 231 H 4.0920 -3.6494 -4.9714 0
M  V30 232 H 3.4002 -4.5358 -9.0876 0
M  V30 233 H 1.2553 -3.3521 -8.9940 0
M  V30 234 H 2.1657 -0.3123 -6.4715 0
M  V30 235 H 1.1669 2.4413 -9.2305 0
M  V30 236 H 3.2323 3.7512 -9.4366 0
M  V30 237 H 3.8919 3.3859 -5.2328 0
M  V30 238 H 1.8816 1.9816 -5.0381 0
M  V30 239 H -0.9796 3.1040 -6.1201 0
M  V30 240 H -2.8577 4.7111 -6.1975 0
M  V30 241 C -3.4786 -6.4201 4.0624 0
M  V30 242 C -3.7568 -5.4970 3.0501 0
M  V30 243 C -3.0825 -5.5579 1.8459 0
M  V30 244 C -2.1343 -6.5578 1.6210 0
M  V30 245 C -1.1365 -6.4575 0.5493 0
M  V30 246 C 0.1911 -6.5701 0.9556 0
M  V30 247 C 1.2755 -6.4865 0.0884 0
M  V30 248 C 2.5428 -6.6842 0.8308 0
M  V30 249 C 2.8864 -7.9604 1.2795 0
M  V30 250 C 3.7086 -8.1196 2.3750 0
M  V30 251 C 4.2036 -6.9934 3.0465 0
M  V30 252 C 4.0441 -5.7368 2.4555 0
M  V30 253 C 3.2041 -5.5798 1.3720 0
M  V30 254 C 1.0421 -6.2167 -1.2664 0
M  V30 255 C 2.0423 -6.3323 -2.3386 0
M  V30 256 C 1.5897 -6.7140 -3.6103 0
M  V30 257 C 2.4537 -6.8834 -4.6638 0
M  V30 258 C 3.8305 -6.7152 -4.4812 0
M  V30 259 C 4.2991 -6.3390 -3.2196 0
M  V30 260 C 3.4180 -6.1454 -2.1697 0
M  V30 261 C -0.2826 -5.9692 -1.6370 0
M  V30 262 C -1.3730 -6.1482 -0.7898 0
M  V30 263 C -2.6394 -6.2582 -1.5392 0
M  V30 264 C -3.1963 -7.5306 -1.7010 0
M  V30 265 C -3.9327 -7.8276 -2.8285 0
M  V30 266 C -4.1678 -6.8369 -3.7917 0
M  V30 267 C -3.8639 -5.5102 -3.4702 0
M  V30 268 C -3.0754 -5.2288 -2.3745 0
M  V30 269 C -2.0051 -7.5851 2.5619 0
M  V30 270 C -2.6657 -7.5239 3.7665 0
M  V30 271 H -4.4530 -4.6983 3.2527 0
M  V30 272 H -3.2411 -4.7953 1.1007 0
M  V30 273 H 0.3891 -6.7514 2.0005 0
M  V30 274 H 2.4586 -8.8315 0.8076 0
M  V30 275 H 3.9503 -9.1119 2.7238 0
M  V30 276 H 4.5155 -4.8813 2.9081 0
M  V30 277 H 2.9973 -4.5922 0.9908 0
M  V30 278 H 0.5478 -6.9197 -3.7879 0
M  V30 279 H 2.0632 -7.1128 -5.6424 0
M  V30 280 H 5.3658 -6.2555 -3.0713 0
M  V30 281 H 3.8079 -5.8581 -1.2070 0
M  V30 282 H -0.4953 -5.6711 -2.6499 0
M  V30 283 H -2.9660 -8.3162 -0.9982 0
M  V30 284 H -4.3022 -8.8300 -2.9840 0
M  V30 285 H -4.1559 -4.7238 -4.1420 0
M  V30 286 H -2.7400 -4.2187 -2.2009 0
M  V30 287 H -1.3665 -8.4296 2.3528 0
M  V30 288 H -2.5680 -8.3323 4.4750 0
M  V30 289 Zn 6.6929 6.6680 5.9724 0 CHG=2
M  V30 290 C 10.3097 5.5067 8.9963 0
M  V30 291 C 9.0823 4.8613 8.9666 0
M  V30 292 C 8.1522 5.2330 7.9984 0
M  V30 293 H 8.8525 4.0865 9.6810 0
M  V30 294 N 8.4062 6.1950 7.0971 0
M  V30 295 C 6.8635 4.5843 7.8856 0
M  V30 296 C 9.5825 6.7983 7.1223 0
M  V30 297 C 10.5681 6.4896 8.0520 0
M  V30 298 H 9.7547 7.5608 6.3779 0
M  V30 299 H 11.5116 7.0110 8.0384 0
M  V30 300 H 11.0509 5.2493 9.7371 0
M  V30 301 N 6.0768 4.8744 6.9209 0
M  V30 302 H 6.6180 3.8237 8.6230 0
M  V30 303 C 4.1172 8.2443 9.7940 0
M  V30 304 C 3.5686 7.8947 8.5695 0
M  V30 305 C 4.4236 7.5562 7.5235 0
M  V30 306 H 2.4998 7.8881 8.4272 0
M  V30 307 N 5.7580 7.5372 7.6695 0
M  V30 308 C 3.9318 7.2602 6.1961 0
M  V30 309 C 6.2763 7.8908 8.8340 0
M  V30 310 C 5.4981 8.2545 9.9257 0
M  V30 311 H 7.3532 7.8888 8.9078 0
M  V30 312 H 5.9689 8.5379 10.8534 0
M  V30 313 H 3.4890 8.5122 10.6292 0
M  V30 314 N 4.7399 7.0311 5.2305 0
M  V30 315 H 2.8557 7.3027 6.0404 0
M  V30 316 C 8.6411 10.5806 3.8909 0
M  V30 317 C 8.5410 9.3366 3.2840 0
M  V30 318 C 7.9396 8.2956 3.9873 0
M  V30 319 H 8.9290 9.1782 2.2903 0
M  V30 320 N 7.4454 8.4634 5.2248 0
M  V30 321 C 7.8041 6.9649 3.4280 0
M  V30 322 C 7.5349 9.6523 5.7956 0
M  V30 323 C 8.1276 10.7427 5.1692 0
M  V30 324 H 7.1174 9.7477 6.7863 0
M  V30 325 H 8.1818 11.6941 5.6732 0
M  V30 326 H 9.1070 11.4087 3.3797 0
M  V30 327 N 7.3840 5.9900 4.1418 0
M  V30 328 H 8.0845 6.8305 2.3849 0
M  V30 329 Zn -5.7242 -5.3456 6.0638 0 CHG=2
M  V30 330 C -8.6780 -2.8558 9.0727 0
M  V30 331 C -7.3395 -2.5546 8.8763 0
M  V30 332 C -6.6123 -3.2952 7.9460 0
M  V30 333 H -6.8648 -1.7672 9.4402 0
M  V30 334 N -7.1681 -4.2816 7.2241 0
M  V30 335 C -5.2117 -3.0470 7.7082 0
M  V30 336 C -8.4475 -4.5584 7.4127 0
M  V30 337 C -9.2433 -3.8793 8.3264 0
M  V30 338 H -8.8663 -5.3564 6.8198 0
M  V30 339 H -10.2787 -4.1528 8.4506 0
M  V30 340 H -9.2700 -2.3124 9.7928 0
M  V30 341 N -4.5826 -3.6572 6.7722 0
M  V30 342 H -4.7165 -2.3149 8.3401 0
M  V30 343 C -3.3099 -6.8035 10.0554 0
M  V30 344 C -2.8094 -6.8464 8.7646 0
M  V30 345 C -3.6392 -6.4747 7.7079 0
M  V30 346 H -1.7969 -7.1663 8.5774 0
M  V30 347 N -4.8963 -6.0471 7.9069 0
M  V30 348 C -3.2065 -6.5638 6.3362 0
M  V30 349 C -5.3746 -6.0291 9.1406 0
M  V30 350 C -4.6238 -6.3994 10.2465 0
M  V30 351 H -6.3993 -5.7153 9.2547 0
M  V30 352 H -5.0623 -6.3740 11.2309 0
M  V30 353 H -2.6979 -7.0871 10.8975 0
M  V30 354 N -3.9555 -6.2016 5.3552 0
M  V30 355 H -2.2099 -6.9645 6.1713 0
M  V30 356 C -8.7119 -9.1543 5.8688 0
M  V30 357 C -8.8399 -8.0145 5.0920 0
M  V30 358 C -7.8541 -7.0297 5.1728 0
M  V30 359 H -9.6885 -7.8915 4.4370 0
M  V30 360 N -6.7941 -7.1490 5.9860 0
M  V30 361 C -7.9155 -5.8383 4.3581 0
M  V30 362 C -6.6698 -8.2468 6.7121 0
M  V30 363 C -7.5990 -9.2780 6.6888 0
M  V30 364 H -5.7976 -8.3165 7.3426 0
M  V30 365 H -7.4577 -10.1546 7.3000 0
M  V30 366 H -9.4591 -9.9322 5.8345 0
M  V30 367 N -6.9861 -4.9516 4.3819 0
M  V30 368 H -8.7907 -5.7535 3.7202 0
M  V30 369 Zn 6.4491 -5.8755 -6.1188 0 CHG=2
M  V30 370 C 9.9289 -8.8261 -4.3668 0
M  V30 371 C 9.7845 -7.4894 -4.0294 0
M  V30 372 C 8.6869 -6.7863 -4.5250 0
M  V30 373 H 10.5109 -7.0003 -3.3993 0
M  V30 374 N 7.7642 -7.3599 -5.3140 0
M  V30 375 C 8.4546 -5.4023 -4.1748 0
M  V30 376 C 7.8973 -8.6412 -5.6123 0
M  V30 377 C 8.9614 -9.4156 -5.1673 0
M  V30 378 H 7.1313 -9.0832 -6.2294 0
M  V30 379 H 9.0298 -10.4546 -5.4464 0
M  V30 380 H 10.7720 -9.3988 -4.0127 0
M  V30 381 N 7.3774 -4.7970 -4.5151 0
M  V30 382 H 9.2088 -4.9171 -3.5580 0
M  V30 383 C 9.4720 -3.7793 -9.3406 0
M  V30 384 C 8.1046 -3.5624 -9.2816 0
M  V30 385 C 7.3714 -4.1520 -8.2528 0
M  V30 386 H 7.6127 -2.9524 -10.0225 0
M  V30 387 N 7.9498 -4.9140 -7.3113 0
M  V30 388 C 5.9478 -3.9466 -8.1280 0
M  V30 389 C 9.2572 -5.1095 -7.3695 0
M  V30 390 C 10.0616 -4.5680 -8.3628 0
M  V30 391 H 9.6910 -5.7266 -6.5983 0
M  V30 392 H 11.1216 -4.7639 -8.3708 0
M  V30 393 H 10.0682 -3.3472 -10.1292 0
M  V30 394 N 5.2852 -4.4210 -7.1394 0
M  V30 395 H 5.4752 -3.3242 -8.8847 0
M  V30 396 C 5.6475 -9.2360 -9.6255 0
M  V30 397 C 4.8771 -9.0656 -8.4874 0
M  V30 398 C 5.1958 -8.0340 -7.6033 0
M  V30 399 H 4.0477 -9.7247 -8.2843 0
M  V30 400 N 6.2196 -7.1931 -7.8220 0
M  V30 401 C 4.4287 -7.8289 -6.3993 0
M  V30 402 C 6.9540 -7.3697 -8.9079 0
M  V30 403 C 6.7108 -8.3707 -9.8383 0
M  V30 404 H 7.7801 -6.6938 -9.0571 0
M  V30 405 H 7.3415 -8.4684 -10.7070 0
M  V30 406 H 5.4312 -10.0248 -10.3293 0
M  V30 407 N 4.7108 -6.9118 -5.5457 0
M  V30 408 H 3.5940 -8.5096 -6.2510 0
M  V30 409 Zn -5.3708 6.2761 -6.5808 0 CHG=2
M  V30 410 C -3.2219 8.7105 -10.2007 0
M  V30 411 C -2.7155 8.6440 -8.9121 0
M  V30 412 C -3.4223 7.9263 -7.9484 0
M  V30 413 H -1.7959 9.1466 -8.6575 0
M  V30 414 N -4.5690 7.2899 -8.2333 0
M  V30 415 C -2.9801 7.8531 -6.5769 0
M  V30 416 C -5.0477 7.3571 -9.4642 0
M  V30 417 C -4.4133 8.0574 -10.4821 0
M  V30 418 H -5.9767 6.8414 -9.6530 0
M  V30 419 H -4.8473 8.0933 -11.4684 0
M  V30 420 H -2.7071 9.2634 -10.9711 0
M  V30 421 N -3.5814 7.1096 -5.7202 0
M  V30 422 H -2.1227 8.4604 -6.3008 0
M  V30 423 C -6.6698 10.2240 -4.0606 0
M  V30 424 C -6.6901 8.9305 -3.5636 0
M  V30 425 C -6.3823 7.8761 -4.4212 0
M  V30 426 H -6.9421 8.7419 -2.5325 0
M  V30 427 N -6.0439 8.0794 -5.7043 0
M  V30 428 C -6.4440 6.5009 -3.9904 0
M  V30 429 C -6.0377 9.3150 -6.1764 0
M  V30 430 C -6.3479 10.4202 -5.3960 0
M  V30 431 H -5.7823 9.4300 -7.2179 0
M  V30 432 H -6.3386 11.4076 -5.8289 0
M  V30 433 H -6.9070 11.0652 -3.4280 0
M  V30 434 N -6.0865 5.5272 -4.7502 0
M  V30 435 H -6.8190 6.3258 -2.9852 0
M  V30 436 C -9.6186 5.1448 -8.6311 0
M  V30 437 C -8.4629 4.3914 -8.7580 0
M  V30 438 C -7.2977 4.8319 -8.1291 0
M  V30 439 H -8.4624 3.4840 -9.3411 0
M  V30 440 N -7.2684 5.9551 -7.3951 0
M  V30 441 C -6.0567 4.1080 -8.2599 0
M  V30 442 C -8.3765 6.6661 -7.2720 0
M  V30 443 C -9.5752 6.3065 -7.8731 0
M  V30 444 H -8.3130 7.5622 -6.6748 0
M  V30 445 H -10.4515 6.9228 -7.7525 0
M  V30 446 H -10.5344 4.8375 -9.1122 0
M  V30 447 N -4.9710 4.5115 -7.7008 0
M  V30 448 H -6.0990 3.2030 -8.8585 0
M  V30 449 Zn 6.4630 -6.0688 5.2298 0 CHG=2
M  V30 450 C 10.6476 -4.7623 7.3347 0
M  V30 451 C 9.4330 -4.1252 7.5279 0
M  V30 452 C 8.3011 -4.6168 6.8759 0
M  V30 453 H 9.3613 -3.2690 8.1799 0
M  V30 454 N 8.3600 -5.6742 6.0517 0
M  V30 455 C 7.0059 -4.0137 7.0733 0
M  V30 456 C 9.5234 -6.2770 5.8705 0
M  V30 457 C 10.6939 -5.8635 6.4915 0
M  V30 458 H 9.5289 -7.1266 5.2063 0
M  V30 459 H 11.6176 -6.3921 6.3195 0
M  V30 460 H 11.5401 -4.4134 7.8310 0
M  V30 461 N 5.9420 -4.4729 6.5153 0
M  V30 462 H 6.9904 -3.1422 7.7207 0
M  V30 463 C 5.0011 -9.3048 8.5420 0
M  V30 464 C 4.3950 -9.1400 7.3068 0
M  V30 465 C 4.8993 -8.1773 6.4323 0
M  V30 466 H 3.5527 -9.7516 7.0244 0
M  V30 467 N 5.9436 -7.3995 6.7560 0
M  V30 468 C 4.3389 -7.9882 5.1163 0
M  V30 469 C 6.5142 -7.5575 7.9384 0
M  V30 470 C 6.0841 -8.4991 8.8640 0
M  V30 471 H 7.3532 -6.9179 8.1645 0
M  V30 472 H 6.5881 -8.5994 9.8117 0
M  V30 473 H 4.6436 -10.0462 9.2397 0
M  V30 474 N 4.7708 -7.0757 4.3220 0
M  V30 475 H 3.5334 -8.6603 4.8333 0
M  V30 476 C 8.2908 -9.1561 1.9532 0
M  V30 477 C 8.1956 -7.7853 1.7720 0
M  V30 478 C 7.7380 -6.9989 2.8272 0
M  V30 479 H 8.4699 -7.3330 0.8326 0
M  V30 480 N 7.3658 -7.5313 4.0014 0
M  V30 481 C 7.6525 -5.5618 2.7268 0
M  V30 482 C 7.4734 -8.8384 4.1744 0
M  V30 483 C 7.9351 -9.6924 3.1824 0
M  V30 484 H 7.1859 -9.2208 5.1412 0
M  V30 485 H 8.0138 -10.7502 3.3751 0
M  V30 486 H 8.6427 -9.7985 1.1612 0
M  V30 487 N 7.0648 -4.8432 3.6160 0
M  V30 488 H 8.1068 -5.1068 1.8493 0
M  V30 489 Zn -5.6258 5.8430 5.5779 0 CHG=2
M  V30 490 C -8.9897 2.8594 7.4140 0
M  V30 491 C -7.6437 2.5500 7.2982 0
M  V30 492 C -6.7634 3.5386 6.8640 0
M  V30 493 H -7.2825 1.5623 7.5353 0
M  V30 494 N -7.1821 4.7704 6.5329 0
M  V30 495 C -5.3409 3.3137 6.7794 0
M  V30 496 C -8.4644 5.0660 6.6658 0
M  V30 497 C -9.4063 4.1466 7.1070 0
M  V30 498 H -8.7544 6.0748 6.4180 0
M  V30 499 H -10.4393 4.4389 7.2070 0
M  V30 500 H -9.7037 2.1221 7.7461 0
M  V30 501 N -4.5430 4.1584 6.2291 0
M  V30 502 H -4.9659 2.3914 7.2171 0
M  V30 503 C -4.0238 8.0053 9.6145 0
M  V30 504 C -3.4496 8.1542 8.3623 0
M  V30 505 C -4.0221 7.4937 7.2749 0
M  V30 506 H -2.5819 8.7806 8.2285 0
M  V30 507 N -5.0981 6.7031 7.4117 0
M  V30 508 C -3.4959 7.6482 5.9400 0
M  V30 509 C -5.6393 6.5616 8.6101 0
M  V30 510 C -5.1431 7.1948 9.7415 0
M  V30 511 H -6.5050 5.9216 8.6751 0
M  V30 512 H -5.6240 7.0584 10.6967 0
M  V30 513 H -3.6137 8.5111 10.4749 0
M  V30 514 N -4.0225 7.0593 4.9252 0
M  V30 515 H -2.6270 8.2929 5.8453 0
M  V30 516 C -8.7384 9.2325 4.0450 0
M  V30 517 C -8.6274 7.9726 3.4782 0
M  V30 518 C -7.6936 7.0791 4.0018 0
M  V30 519 H -9.2583 7.6866 2.6515 0
M  V30 520 N -6.8946 7.4063 5.0288 0
M  V30 521 C -7.5578 5.7387 3.4854 0
M  V30 522 C -7.0021 8.6110 5.5630 0
M  V30 523 C -7.9109 9.5583 5.1103 0
M  V30 524 H -6.3468 8.8368 6.3899 0
M  V30 525 H -7.9705 10.5250 5.5838 0
M  V30 526 H -9.4560 9.9464 3.6711 0
M  V30 527 N -6.6682 4.9285 3.9345 0
M  V30 528 H -8.2485 5.4490 2.6984 0
M  V30 529 Zn 6.0892 5.7599 -6.6919 0 CHG=2
M  V30 530 C 8.3894 9.9776 -5.9851 0
M  V30 531 C 8.6505 8.8125 -5.2831 0
M  V30 532 C 7.8994 7.6703 -5.5654 0
M  V30 533 H 9.4288 8.7864 -4.5365 0
M  V30 534 N 6.9269 7.6716 -6.4902 0
M  V30 535 C 8.1410 6.4277 -4.8724 0
M  V30 536 C 6.6777 8.7898 -7.1513 0
M  V30 537 C 7.3801 9.9675 -6.9378 0
M  V30 538 H 5.8868 8.7509 -7.8836 0
M  V30 539 H 7.1455 10.8538 -7.5050 0
M  V30 540 H 8.9582 10.8750 -5.7961 0
M  V30 541 N 7.4782 5.3600 -5.1443 0
M  V30 542 H 8.9095 6.4644 -4.1070 0
M  V30 543 C 9.1332 3.9434 -10.0173 0
M  V30 544 C 7.8702 3.4288 -9.7708 0
M  V30 545 C 7.0885 4.0132 -8.7753 0
M  V30 546 H 7.4959 2.5946 -10.3427 0
M  V30 547 N 7.5235 5.0509 -8.0441 0
M  V30 548 C 5.7526 3.5500 -8.4921 0
M  V30 549 C 8.7314 5.5342 -8.2807 0
M  V30 550 C 9.5725 5.0188 -9.2584 0
M  V30 551 H 9.0490 6.3709 -7.6779 0
M  V30 552 H 10.5453 5.4537 -9.4222 0
M  V30 553 H 9.7630 3.5227 -10.7859 0
M  V30 554 N 5.0706 4.0306 -7.5172 0
M  V30 555 H 5.3489 2.7766 -9.1397 0
M  V30 556 C 2.8576 7.0959 -10.0733 0
M  V30 557 C 2.6089 7.0613 -8.7105 0
M  V30 558 C 3.6621 6.7796 -7.8438 0
M  V30 559 H 1.6192 7.2435 -8.3240 0
M  V30 560 N 4.9003 6.5144 -8.2893 0
M  V30 561 C 3.5014 6.7944 -6.4102 0
M  V30 562 C 5.1371 6.5725 -9.5898 0
M  V30 563 C 4.1501 6.8625 -10.5209 0
M  V30 564 H 6.1527 6.3883 -9.9009 0
M  V30 565 H 4.3961 6.9056 -11.5697 0
M  V30 566 H 2.0691 7.3091 -10.7779 0
M  V30 567 N 4.4107 6.3709 -5.6062 0
M  V30 568 H 2.5656 7.1996 -6.0310 0
M  V30 569 Zn -6.0047 -6.3096 -6.4995 0 CHG=2
M  V30 570 C -8.4257 -9.5427 -3.7467 0
M  V30 571 C -8.2946 -8.1925 -3.4660 0
M  V30 572 C -7.6449 -7.3723 -4.3883 0
M  V30 573 H -8.6936 -7.7807 -2.5530 0
M  V30 574 N -7.1211 -7.8551 -5.5251 0
M  V30 575 C -7.5342 -5.9515 -4.1754 0
M  V30 576 C -7.2694 -9.1412 -5.7970 0
M  V30 577 C -7.9143 -10.0249 -4.9429 0
M  V30 578 H -6.8686 -9.4866 -6.7363 0
M  V30 579 H -8.0137 -11.0633 -5.2148 0
M  V30 580 H -8.9242 -10.2072 -3.0583 0
M  V30 581 N -6.9164 -5.1591 -4.9800 0
M  V30 582 H -8.0155 -5.5737 -3.2762 0
M  V30 583 C -9.6267 -5.3469 -9.6113 0
M  V30 584 C -8.3610 -4.7898 -9.6840 0
M  V30 585 C -7.4132 -5.1359 -8.7187 0
M  V30 586 H -8.1100 -4.1061 -10.4797 0
M  V30 587 N -7.6947 -5.9831 -7.7179 0
M  V30 588 C -6.0758 -4.5982 -8.7704 0
M  V30 589 C -8.9089 -6.5025 -7.6488 0
M  V30 590 C -9.9077 -6.2208 -8.5705 0
M  V30 591 H -9.1036 -7.1769 -6.8301 0
M  V30 592 H -10.8802 -6.6763 -8.4761 0
M  V30 593 H -10.3792 -5.1083 -10.3470 0
M  V30 594 N -5.1662 -4.9201 -7.9202 0
M  V30 595 H -5.8961 -3.8974 -9.5800 0
M  V30 596 C -4.0186 -10.0530 -8.8624 0
M  V30 597 C -3.7164 -9.7241 -7.5508 0
M  V30 598 C -4.3048 -8.5918 -6.9876 0
M  V30 599 H -3.0448 -10.3388 -6.9724 0
M  V30 600 N -5.1411 -7.8055 -7.6828 0
M  V30 601 C -4.0408 -8.2065 -5.6233 0
M  V30 602 C -5.4181 -8.1188 -8.9375 0
M  V30 603 C -4.8864 -9.2340 -9.5712 0
M  V30 604 H -6.0948 -7.4639 -9.4643 0
M  V30 605 H -5.1504 -9.4555 -10.5927 0
M  V30 606 H -3.5917 -10.9289 -9.3259 0
M  V30 607 N -4.5422 -7.1419 -5.1069 0
M  V30 608 H -3.3704 -8.8497 -5.0592 0
M  V30 END ATOM
M  V30 BEGIN BOND
M  V30 1 2 1 2
M  V30 2 1 2 3
M  V30 3 2 3 4
M  V30 4 1 4 5
M  V30 5 2 5 6
M  V30 6 1 6 7
M  V30 7 1 7 8
M  V30 8 2 8 9
M  V30 9 1 9 10
M  V30 10 2 10 11
M  V30 11 1 11 12
M  V30 12 2 12 13
M  V30 13 2 7 14
M  V30 14 1 14 15
M  V30 15 2 15 16
M  V30 16 1 16 17
M  V30 17 2 17 18
M  V30 18 1 18 19
M  V30 19 2 19 20
M  V30 20 1 14 21
M  V30 21 2 21 22
M  V30 22 1 22 23
M  V30 23 2 23 24
M  V30 24 1 24 25
M  V30 25 2 25 26
M  V30 26 1 26 27
M  V30 27 2 27 28
M  V30 28 1 4 29
M  V30 29 2 29 30
M  V30 30 1 30 1
M  V30 31 1 22 5
M  V30 32 1 28 23
M  V30 33 1 13 8
M  V30 34 1 20 15
M  V30 35 1 2 31
M  V30 36 1 3 32
M  V30 37 1 6 33
M  V30 38 1 9 34
M  V30 39 1 10 35
M  V30 40 1 12 36
M  V30 41 1 13 37
M  V30 42 1 16 38
M  V30 43 1 17 39
M  V30 44 1 19 40
M  V30 45 1 20 41
M  V30 46 1 21 42
M  V30 47 1 24 43
M  V30 48 1 25 44
M  V30 49 1 27 45
M  V30 50 1 28 46
M  V30 51 1 29 47
M  V30 52 1 30 48
M  V30 53 2 49 50
M  V30 54 1 50 51
M  V30 55 2 51 52
M  V30 56 1 52 53
M  V30 57 2 53 54
M  V30 58 1 54 55
M  V30 59 1 55 56
M  V30 60 2 56 57
M  V30 61 1 57 58
M  V30 62 2 58 59
M  V30 63 1 59 60
M  V30 64 2 60 61
M  V30 65 2 55 62
M  V30 66 1 62 63
M  V30 67 2 63 64
M  V30 68 1 64 65
M  V30 69 2 65 66
M  V30 70 1 66 67
M  V30 71 2 67 68
M  V30 72 1 62 69
M  V30 73 2 69 70
M  V30 74 1 70 71
M  V30 75 2 71 72
M  V30 76 1 72 73
M  V30 77 2 73 74
M  V30 78 1 74 75
M  V30 79 2 75 76
M  V30 80 1 52 77
M  V30 81 2 77 78
M  V30 82 1 78 49
M  V30 83 1 70 53
M  V30 84 1 76 71
M  V30 85 1 61 56
M  V30 86 1 68 63
M  V30 87 1 50 79
M  V30 88 1 51 80
M  V30 89 1 54 81
M  V30 90 1 57 82
M  V30 91 1 58 83
M  V30 92 1 60 84
M  V30 93 1 61 85
M  V30 94 1 64 86
M  V30 95 1 65 87
M  V30 96 1 67 88
M  V30 97 1 68 89
M  V30 98 1 69 90
M  V30 99 1 72 91
M  V30 100 1 73 92
M  V30 101 1 75 93
M  V30 102 1 76 94
M  V30 103 1 77 95
M  V30 104 1 78 96
M  V30 105 2 97 98
M  V30 106 1 98 99
M  V30 107 2 99 100
M  V30 108 1 100 101
M  V30 109 2 101 102
M  V30 110 1 102 103
M  V30 111 1 103 104
M  V30 112 2 104 105
M  V30 113 1 105 106
M  V30 114 2 106 107
M  V30 115 1 107 108
M  V30 116 2 108 109
M  V30 117 2 103 110
M  V30 118 1 110 111
M  V30 119 2 111 112
M  V30 120 1 112 113
M  V30 121 2 113 114
M  V30 122 1 114 115
M  V30 123 2 115 116
M  V30 124 1 110 117
M  V30 125 2 117 118
M  V30 126 1 118 119
M  V30 127 2 119 120
M  V30 128 1 120 121
M  V30 129 2 121 122
M  V30 130 1 122 123
M  V30 131 2 123 124
M  V30 132 1 100 125
M  V30 133 2 125 126
M  V30 134 1 126 97
M  V30 135 1 118 101
M  V30 136 1 124 119
M  V30 137 1 109 104
M  V30 138 1 116 111
M  V30 139 1 98 127
M  V30 140 1 99 128
M  V30 141 1 102 129
M  V30 142 1 105 130
M  V30 143 1 106 131
M  V30 144 1 108 132
M  V30 145 1 109 133
M  V30 146 1 112 134
M  V30 147 1 113 135
M  V30 148 1 115 136
M  V30 149 1 116 137
M  V30 150 1 117 138
M  V30 151 1 120 139
M  V30 152 1 121 140
M  V30 153 1 123 141
M  V30 154 1 124 142
M  V30 155 1 125 143
M  V30 156 1 126 144
M  V30 157 2 145 146
M  V30 158 1 146 147
M  V30 159 2 147 148
M  V30 160 1 148 149
M  V30 161 2 149 150
M  V30 162 1 150 151
M  V30 163 1 151 152
M  V30 164 2 152 153
M  V30 165 1 153 154
M  V30 166 2 154 155
M  V30 167 1 155 156
M  V30 168 2 156 157
M  V30 169 2 151 158
M  V30 170 1 158 159
M  V30 171 2 159 160
M  V30 172 1 160 161
M  V30 173 2 161 162
M  V30 174 1 162 163
M  V30 175 2 163 164
M  V30 176 1 158 165
M  V30 177 2 165 166
M  V30 178 1 166 167
M  V30 179 2 167 168
M  V30 180 1 168 169
M  V30 181 2 169 170
M  V30 182 1 170 171
M  V30 183 2 171 172
M  V30 184 1 148 173
M  V30 185 2 173 174
M  V30 186 1 174 145
M  V30 187 1 166 149
M  V30 188 1 172 167
M  V30 189 1 157 152
M  V30 190 1 164 159
M  V30 191 1 146 175
M  V30 192 1 147 176
M  V30 193 1 150 177
M  V30 194 1 153 178
M  V30 195 1 154 179
M  V30 196 1 156 180
M  V30 197 1 157 181
M  V30 198 1 160 182
M  V30 199 1 161 183
M  V30 200 1 163 184
M  V30 201 1 164 185
M  V30 202 1 165 186
M  V30 203 1 168 187
M  V30 204 1 169 188
M  V30 205 1 171 189
M  V30 206 1 172 190
M  V30 207 1 173 191
M  V30 208 1 174 192
M  V30 209 2 193 194
M  V30 210 1 194 195
M  V30 211 2 195 196
M  V30 212 1 196 197
M  V30 213 2 197 198
M  V30 214 1 198 199
M  V30 215 1 199 200
M  V30 216 2 200 201
M  V30 217 1 201 202
M  V30 218 2 202 203
M  V30 219 1 203 204
M  V30 220 2 204 205
M  V30 221 2 199 206
M  V30 222 1 206 207
M  V30 223 2 207 208
M  V30 224 1 208 209
M  V30 225 2 209 210
M  V30 226 1 210 211
M  V30 227 2 211 212
M  V30 228 1 206 213
M  V30 229 2 213 214
M  V30 230 1 214 215
M  V30 231 2 215 216
M  V30 232 1 216 217
M  V30 233 2 217 218
M  V30 234 1 218 219
M  V30 235 2 219 220
M  V30 236 1 196 221
M  V30 237 2 221 222
M  V30 238 1 222 193
M  V30 239 1 214 197
M  V30 240 1 220 215
M  V30 241 1 205 200
M  V30 242 1 212 207
M  V30 243 1 194 223
M  V30 244 1 195 224
M  V30 245 1 198 225
M  V30 246 1 201 226
M  V30 247 1 202 227
M  V30 248 1 204 228
M  V30 249 1 205 229
M  V30 250 1 208 230
M  V30 251 1 209 231
M  V30 252 1 211 232
M  V30 253 1 212 233
M  V30 254 1 213 234
M  V30 255 1 216 235
M  V30 256 1 217 236
M  V30 257 1 219 237
M  V30 258 1 220 238
M  V30 259 1 221 239
M  V30 260 1 222 240
M  V30 261 2 241 242
M  V30 262 1 242 243
M  V30 263 2 243 244
M  V30 264 1 244 245
M  V30 265 2 245 246
M  V30 266 1 246 247
M  V30 267 1 247 248
M  V30 268 2 248 249
M  V30 269 1 249 250
M  V30 270 2 250 251
M  V30 271 1 251 252
M  V30 272 2 252 253
M  V30 273 2 247 254
M  V30 274 1 254 255
M  V30 275 2 255 256
M  V30 276 1 256 257
M  V30 277 2 257 258
M  V30 278 1 258 259
M  V30 279 2 259 260
M  V30 280 1 254 261
M  V30 281 2 261 262
M  V30 282 1 262 263
M  V30 283 2 263 264
M  V30 284 1 264 265
M  V30 285 2 265 266
M  V30 286 1 266 267
M  V30 287 2 267 268
M  V30 288 1 244 269
M  V30 289 2 269 270
M  V30 290 1 270 241
M  V30 291 1 262 245
M  V30 292 1 268 263
M  V30 293 1 253 248
M  V30 294 1 260 255
M  V30 295 1 242 271
M  V30 296 1 243 272
M  V30 297 1 246 273
M  V30 298 1 249 274
M  V30 299 1 250 275
M  V30 300 1 252 276
M  V30 301 1 253 277
M  V30 302 1 256 278
M  V30 303 1 257 279
M  V30 304 1 259 280
M  V30 305 1 260 281
M  V30 306 1 261 282
M  V30 307 1 264 283
M  V30 308 1 265 284
M  V30 309 1 267 285
M  V30 310 1 268 286
M  V30 311 1 269 287
M  V30 312 1 270 288
M  V30 313 1 290 300
M  V30 314 2 290 297
M  V30 315 1 291 290
M  V30 316 2 292 291
M  V30 317 1 292 294
M  V30 318 1 293 291
M  V30 319 2 294 296
M  V30 320 1 295 292
M  V30 321 1 296 297
M  V30 322 1 296 298
M  V30 323 1 297 299
M  V30 324 2 301 295
M  V30 325 1 302 295
M  V30 326 1 303 313
M  V30 327 2 303 310
M  V30 328 1 304 303
M  V30 329 2 305 304
M  V30 330 1 305 307
M  V30 331 1 306 304
M  V30 332 2 307 309
M  V30 333 1 308 305
M  V30 334 1 309 310
M  V30 335 1 309 311
M  V30 336 1 310 312
M  V30 337 2 314 308
M  V30 338 1 315 308
M  V30 339 1 316 326
M  V30 340 2 316 323
M  V30 341 1 317 316
M  V30 342 2 318 317
M  V30 343 1 318 320
M  V30 344 1 319 317
M  V30 345 2 320 322
M  V30 346 1 321 318
M  V30 347 1 322 323
M  V30 348 1 322 324
M  V30 349 1 323 325
M  V30 350 2 327 321
M  V30 351 1 328 321
M  V30 352 9 301 289
M  V30 353 9 294 289
M  V30 354 9 314 289
M  V30 355 9 307 289
M  V30 356 9 327 289
M  V30 357 9 320 289
M  V30 358 1 330 340
M  V30 359 2 330 337
M  V30 360 1 331 330
M  V30 361 2 332 331
M  V30 362 1 332 334
M  V30 363 1 333 331
M  V30 364 2 334 336
M  V30 365 1 335 332
M  V30 366 1 336 337
M  V30 367 1 336 338
M  V30 368 1 337 339
M  V30 369 2 341 335
M  V30 370 1 342 335
M  V30 371 1 343 353
M  V30 372 2 343 350
M  V30 373 1 344 343
M  V30 374 2 345 344
M  V30 375 1 345 347
M  V30 376 1 346 344
M  V30 377 2 347 349
M  V30 378 1 348 345
M  V30 379 1 349 350
M  V30 380 1 349 351
M  V30 381 1 350 352
M  V30 382 2 354 348
M  V30 383 1 355 348
M  V30 384 1 356 366
M  V30 385 2 356 363
M  V30 386 1 357 356
M  V30 387 2 358 357
M  V30 388 1 358 360
M  V30 389 1 359 357
M  V30 390 2 360 362
M  V30 391 1 361 358
M  V30 392 1 362 363
M  V30 393 1 362 364
M  V30 394 1 363 365
M  V30 395 2 367 361
M  V30 396 1 368 361
M  V30 397 9 341 329
M  V30 398 9 334 329
M  V30 399 9 354 329
M  V30 400 9 347 329
M  V30 401 9 367 329
M  V30 402 9 360 329
M  V30 403 1 370 380
M  V30 404 2 370 377
M  V30 405 1 371 370
M  V30 406 2 372 371
M  V30 407 1 372 374
M  V30 408 1 373 371
M  V30 409 2 374 376
M  V30 410 1 375 372
M  V30 411 1 376 377
M  V30 412 1 376 378
M  V30 413 1 377 379
M  V30 414 2 381 375
M  V30 415 1 382 375
M  V30 416 1 383 393
M  V30 417 2 383 390
M  V30 418 1 384 383
M  V30 419 2 385 384
M  V30 420 1 385 387
M  V30 421 1 386 384
M  V30 422 2 387 389
M  V30 423 1 388 385
M  V30 424 1 389 390
M  V30 425 1 389 391
M  V30 426 1 390 392
M  V30 427 2 394 388
M  V30 428 1 395 388
M  V30 429 1 396 406
M  V30 430 2 396 403
M  V30 431 1 397 396
M  V30 432 2 398 397
M  V30 433 1 398 400
M  V30 434 1 399 397
M  V30 435 2 400 402
M  V30 436 1 401 398
M  V30 437 1 402 403
M  V30 438 1 402 404
M  V30 439 1 403 405
M  V30 440 2 407 401
M  V30 441 1 408 401
M  V30 442 9 381 369
M  V30 443 9 374 369
M  V30 444 9 394 369
M  V30 445 9 387 369
M  V30 446 9 407 369
M  V30 447 9 400 369
M  V30 448 1 410 420
M  V30 449 2 410 417
M  V30 450 1 411 410
M  V30 451 2 412 411
M  V30 452 1 412 414
M  V30 453 1 413 411
M  V30 454 2 414 416
M  V30 455 1 415 412
M  V30 456 1 416 417
M  V30 457 1 416 418
M  V30 458 1 417 419
M  V30 459 2 421 415
M  V30 460 1 422 415
M  V30 461 1 423 433
M  V30 462 2 423 430
M  V30 463 1 424 423
M  V30 464 2 425 424
M  V30 465 1 425 427
M  V30 466 1 426 424
M  V30 467 2 427 429
M  V30 468 1 428 425
M  V30 469 1 429 430
M  V30 470 1 429 431
M  V30 471 1 430 432
M  V30 472 2 434 428
M  V30 473 1 435 428
M  V30 474 1 436 446
M  V30 475 2 436 443
M  V30 476 1 437 436
M  V30 477 2 438 437
M  V30 478 1 438 440
M  V30 479 1 439 437
M  V30 480 2 440 442
M  V30 481 1 441 438
M  V30 482 1 442 443
M  V30 483 1 442 444
M  V30 484 1 443 445
M  V30 485 2 447 441
M  V30 486 1 448 441
M  V30 487 9 421 409
M  V30 488 9 414 409
M  V30 489 9 434 409
M  V30 490 9 427 409
M  V30 491 9 447 409
M  V30 492 9 440 409
M  V30 493 1 450 460
M  V30 494 2 450 457
M  V30 495 1 451 450
M  V30 496 2 452 451
M  V30 497 1 452 454
M  V30 498 1 453 451
M  V30 499 2 454 456
M  V30 500 1 455 452
M  V30 501 1 456 457
M  V30 502 1 456 458
M  V30 503 1 457 459
M  V30 504 2 461 455
M  V30 505 1 462 455
M  V30 506 1 463 473
M  V30 507 2 463 470
M  V30 508 1 464 463
M  V30 509 2 465 464
M  V30 510 1 465 467
M  V30 511 1 466 464
M  V30 512 2 467 469
M  V30 513 1 468 465
M  V30 514 1 469 470
M  V30 515 1 469 471
M  V30 516 1 470 472
M  V30 517 2 474 468
M  V30 518 1 475 468
M  V30 519 1 476 486
M  V30 520 2 476 483
M  V30 521 1 477 476
M  V30 522 2 478 477
M  V30 523 1 478 480
M  V30 524 1 479 477
M  V30 525 2 480 482
M  V30 526 1 481 478
M  V30 527 1 482 483
M  V30 528 1 482 484
M  V30 529 1 483 485
M  V30 530 2 487 481
M  V30 531 1 488 481
M  V30 532 9 461 449
M  V30 533 9 454 449
M  V30 534 9 487 449
M  V30 535 9 480 449
M  V30 536 9 474 449
M  V30 537 9 467 449
M  V30 538 1 490 500
M  V30 539 2 490 497
M  V30 540 1 491 490
M  V30 541 2 492 491
M  V30 542 1 492 494
M  V30 543 1 493 491
M  V30 544 2 494 496
M  V30 545 1 495 492
M  V30 546 1 496 497
M  V30 547 1 496 498
M  V30 548 1 497 499
M  V30 549 2 501 495
M  V30 550 1 502 495
M  V30 551 1 503 513
M  V30 552 2 503 510
M  V30 553 1 504 503
M  V30 554 2 505 504
M  V30 555 1 505 507
M  V30 556 1 506 504
M  V30 557 2 507 509
M  V30 558 1 508 505
M  V30 559 1 509 510
M  V30 560 1 509 511
M  V30 561 1 510 512
M  V30 562 2 514 508
M  V30 563 1 515 508
M  V30 564 1 516 526
M  V30 565 2 516 523
M  V30 566 1 517 516
M  V30 567 2 518 517
M  V30 568 1 518 520
M  V30 569 1 519 517
M  V30 570 2 520 522
M  V30 571 1 521 518
M  V30 572 1 522 523
M  V30 573 1 522 524
M  V30 574 1 523 525
M  V30 575 2 527 521
M  V30 576 1 528 521
M  V30 577 9 501 489
M  V30 578 9 494 489
M  V30 579 9 527 489
M  V30 580 9 520 489
M  V30 581 9 514 489
M  V30 582 9 507 489
M  V30 583 1 530 540
M  V30 584 2 530 537
M  V30 585 1 531 530
M  V30 586 2 532 531
M  V30 587 1 532 534
M  V30 588 1 533 531
M  V30 589 2 534 536
M  V30 590 1 535 532
M  V30 591 1 536 537
M  V30 592 1 536 538
M  V30 593 1 537 539
M  V30 594 2 541 535
M  V30 595 1 542 535
M  V30 596 1 543 553
M  V30 597 2 543 550
M  V30 598 1 544 543
M  V30 599 2 545 544
M  V30 600 1 545 547
M  V30 601 1 546 544
M  V30 602 2 547 549
M  V30 603 1 548 545
M  V30 604 1 549 550
M  V30 605 1 549 551
M  V30 606 1 550 552
M  V30 607 2 554 548
M  V30 608 1 555 548
M  V30 609 1 556 566
M  V30 610 2 556 563
M  V30 611 1 557 556
M  V30 612 2 558 557
M  V30 613 1 558 560
M  V30 614 1 559 557
M  V30 615 2 560 562
M  V30 616 1 561 558
M  V30 617 1 562 563
M  V30 618 1 562 564
M  V30 619 1 563 565
M  V30 620 2 567 561
M  V30 621 1 568 561
M  V30 622 9 541 529
M  V30 623 9 534 529
M  V30 624 9 567 529
M  V30 625 9 560 529
M  V30 626 9 554 529
M  V30 627 9 547 529
M  V30 628 1 570 580
M  V30 629 2 570 577
M  V30 630 1 571 570
M  V30 631 2 572 571
M  V30 632 1 572 574
M  V30 633 1 573 571
M  V30 634 2 574 576
M  V30 635 1 575 572
M  V30 636 1 576 577
M  V30 637 1 576 578
M  V30 638 1 577 579
M  V30 639 2 581 575
M  V30 640 1 582 575
M  V30 641 1 583 593
M  V30 642 2 583 590
M  V30 643 1 584 583
M  V30 644 2 585 584
M  V30 645 1 585 587
M  V30 646 1 586 584
M  V30 647 2 587 589
M  V30 648 1 588 585
M  V30 649 1 589 590
M  V30 650 1 589 591
M  V30 651 1 590 592
M  V30 652 2 594 588
M  V30 653 1 595 588
M  V30 654 1 596 606
M  V30 655 2 596 603
M  V30 656 1 597 596
M  V30 657 2 598 597
M  V30 658 1 598 600
M  V30 659 1 599 597
M  V30 660 2 600 602
M  V30 661 1 601 598
M  V30 662 1 602 603
M  V30 663 1 602 604
M  V30 664 1 603 605
M  V30 665 2 607 601
M  V30 666 1 608 601
M  V30 667 9 581 569
M  V30 668 9 574 569
M  V30 669 9 607 569
M  V30 670 9 600 569
M  V30 671 9 594 569
M  V30 672 9 587 569
M  V30 673 1 18 301
M  V30 674 1 26 461
M  V30 675 1 1 341
M  V30 676 1 11 501
M  V30 677 1 59 541
M  V30 678 1 66 381
M  V30 679 1 74 487
M  V30 680 1 49 327
M  V30 681 1 107 567
M  V30 682 1 114 314
M  V30 683 1 122 514
M  V30 684 1 97 421
M  V30 685 1 155 527
M  V30 686 1 162 367
M  V30 687 1 170 581
M  V30 688 1 145 434
M  V30 689 1 210 394
M  V30 690 1 218 554
M  V30 691 1 193 447
M  V30 692 1 203 594
M  V30 693 1 251 474
M  V30 694 1 258 407
M  V30 695 1 266 607
M  V30 696 1 241 354
M  V30 END BOND
M  V30 END CTAB
M  END

$$$$
