
     RDKit          3D

  0  0  0  0  0  0  0  0  0  0999 V3000
M  V30 BEGIN CTAB
M  V30 COUNTS 608 696 0 0 0
M  V30 BEGIN ATOM
M  V30 1 C -3.6684 3.3408 6.7777 0
M  V30 2 C -2.7453 3.4441 5.7393 0
M  V30 3 C -1.7605 2.4854 5.6048 0
M  V30 4 C -1.6449 1.4453 6.5282 0
M  V30 5 C -0.4964 0.5271 6.4691 0
M  V30 6 C 0.7650 1.0770 6.2613 0
M  V30 7 C 1.9201 0.3099 6.3159 0
M  V30 8 C 3.2180 1.0000 6.1700 0
M  V30 9 C 4.1325 1.0214 7.2221 0
M  V30 10 C 5.3098 1.7346 7.1124 0
M  V30 11 C 5.5837 2.4537 5.9463 0
M  V30 12 C 4.6763 2.4271 4.8860 0
M  V30 13 C 3.5092 1.6993 4.9969 0
M  V30 14 C 1.8175 -1.0654 6.5675 0
M  V30 15 C 3.0041 -1.9313 6.5705 0
M  V30 16 C 3.1298 -2.9625 7.5050 0
M  V30 17 C 4.1925 -3.8410 7.4467 0
M  V30 18 C 5.1819 -3.6755 6.4752 0
M  V30 19 C 5.0991 -2.6065 5.5803 0
M  V30 20 C 4.0037 -1.7693 5.6078 0
M  V30 21 C 0.5553 -1.6199 6.7585 0
M  V30 22 C -0.6020 -0.8510 6.7108 0
M  V30 23 C -1.9074 -1.5124 6.8781 0
M  V30 24 C -2.1256 -2.3590 7.9667 0
M  V30 25 C -3.3275 -3.0196 8.1139 0
M  V30 26 C -4.3481 -2.8495 7.1746 0
M  V30 27 C -4.1410 -1.9858 6.0921 0
M  V30 28 C -2.9318 -1.3372 5.9447 0
M  V30 29 C -2.5763 1.3558 7.5630 0
M  V30 30 C -3.5966 2.2784 7.6744 0
M  V30 31 H -2.8395 4.2554 5.0360 0
M  V30 32 H -1.0817 2.5344 4.7693 0
M  V30 33 H 0.8554 2.1409 6.1164 0
M  V30 34 H 3.9135 0.4979 8.1392 0
M  V30 35 H 5.9884 1.7920 7.9499 0
M  V30 36 H 4.9169 2.9620 3.9817 0
M  V30 37 H 2.8182 1.6647 4.1697 0
M  V30 38 H 2.3971 -3.0772 8.2874 0
M  V30 39 H 4.2926 -4.6363 8.1674 0
M  V30 40 H 5.8584 -2.4911 4.8249 0
M  V30 41 H 3.9112 -1.0006 4.8595 0
M  V30 42 H 0.4693 -2.6835 6.9114 0
M  V30 43 H -1.3605 -2.4811 8.7176 0
M  V30 44 H -3.5117 -3.6329 8.9797 0
M  V30 45 H -4.9073 -1.8703 5.3429 0
M  V30 46 H -2.7672 -0.7029 5.0895 0
M  V30 47 H -2.4888 0.5820 8.3076 0
M  V30 48 H -4.3041 2.2239 8.4852 0
M  V30 49 C 6.2776 -5.5887 3.2217 0
M  V30 50 C 5.2211 -4.6800 3.2293 0
M  V30 51 C 5.2591 -3.5617 2.4244 0
M  V30 52 C 6.3577 -3.3271 1.6003 0
M  V30 53 C 6.3611 -2.1247 0.7386 0
M  V30 54 C 6.5621 -0.8686 1.2864 0
M  V30 55 C 6.5155 0.2786 0.4994 0
M  V30 56 C 6.6603 1.5878 1.1627 0
M  V30 57 C 7.7513 1.8326 1.9960 0
M  V30 58 C 7.8524 3.0193 2.6932 0
M  V30 59 C 6.8733 3.9988 2.5388 0
M  V30 60 C 5.7870 3.7746 1.6950 0
M  V30 61 C 5.6755 2.5640 1.0332 0
M  V30 62 C 6.2885 0.1533 -0.8742 0
M  V30 63 C 6.2610 1.3081 -1.8040 0
M  V30 64 C 5.0491 1.7938 -2.2948 0
M  V30 65 C 5.0244 2.8187 -3.2220 0
M  V30 66 C 6.2234 3.3169 -3.7291 0
M  V30 67 C 7.4391 2.8326 -3.2476 0
M  V30 68 C 7.4529 1.8577 -2.2680 0
M  V30 69 C 6.1047 -1.1097 -1.4247 0
M  V30 70 C 6.1203 -2.2483 -0.6327 0
M  V30 71 C 5.8011 -3.5692 -1.2076 0
M  V30 72 C 6.6090 -4.1515 -2.1807 0
M  V30 73 C 6.2562 -5.3589 -2.7531 0
M  V30 74 C 5.0873 -6.0074 -2.3555 0
M  V30 75 C 4.3065 -5.4539 -1.3391 0
M  V30 76 C 4.6525 -4.2389 -0.7863 0
M  V30 77 C 7.4145 -4.2334 1.5948 0
M  V30 78 C 7.3796 -5.3606 2.3950 0
M  V30 79 H 4.3647 -4.9045 3.8405 0
M  V30 80 H 4.4360 -2.8652 2.4272 0
M  V30 81 H 6.7392 -0.7705 2.3451 0
M  V30 82 H 8.5305 1.0938 2.0978 0
M  V30 83 H 8.6972 3.2142 3.3332 0
M  V30 84 H 5.0160 4.5271 1.6223 0
M  V30 85 H 4.8003 2.3514 0.4424 0
M  V30 86 H 4.1210 1.3653 -1.9501 0
M  V30 87 H 4.0962 3.2088 -3.6056 0
M  V30 88 H 8.3637 3.2445 -3.6233 0
M  V30 89 H 8.3982 1.5008 -1.8902 0
M  V30 90 H 5.9342 -1.2015 -2.4852 0
M  V30 91 H 7.5214 -3.6645 -2.4887 0
M  V30 92 H 6.9025 -5.8266 -3.4767 0
M  V30 93 H 3.4028 -5.9565 -1.0380 0
M  V30 94 H 4.0196 -3.7896 -0.0395 0
M  V30 95 H 8.2765 -4.0555 0.9707 0
M  V30 96 H 8.2216 -6.0363 2.4177 0
M  V30 97 C -5.2587 5.7563 -2.2999 0
M  V30 98 C -4.0371 5.1901 -2.6801 0
M  V30 99 C -2.9465 5.2369 -1.8431 0
M  V30 100 C -3.0215 5.8952 -0.6129 0
M  V30 101 C -1.8521 5.8836 0.2716 0
M  V30 102 C -0.5849 6.0537 -0.2752 0
M  V30 103 C 0.5697 5.9616 0.4902 0
M  V30 104 C 1.8511 6.0130 -0.2369 0
M  V30 105 C 2.1311 7.1044 -1.0597 0
M  V30 106 C 3.2793 7.1323 -1.8238 0
M  V30 107 C 4.1708 6.0611 -1.7740 0
M  V30 108 C 3.8964 4.9663 -0.9550 0
M  V30 109 C 2.7399 4.9394 -0.1995 0
M  V30 110 C 0.4636 5.7543 1.8732 0
M  V30 111 C 1.6179 5.6673 2.7798 0
M  V30 112 C 1.5757 4.7732 3.8543 0
M  V30 113 C 2.5807 4.7434 4.7959 0
M  V30 114 C 3.6978 5.5692 4.6540 0
M  V30 115 C 3.7730 6.4296 3.5589 0
M  V30 116 C 2.7357 6.4924 2.6478 0
M  V30 117 C -0.8114 5.6456 2.4274 0
M  V30 118 C -1.9607 5.6708 1.6518 0
M  V30 119 C -3.2472 5.3518 2.3004 0
M  V30 120 C -3.7452 6.1494 3.3287 0
M  V30 121 C -4.8822 5.7736 4.0164 0
M  V30 122 C -5.5353 4.5836 3.6947 0
M  V30 123 C -5.0701 3.8107 2.6288 0
M  V30 124 C -3.9316 4.1893 1.9462 0
M  V30 125 C -4.2076 6.5522 -0.2783 0
M  V30 126 C -5.3122 6.4838 -1.1017 0
M  V30 127 H -3.9636 4.6891 -3.6308 0
M  V30 128 H -2.0376 4.7338 -2.1283 0
M  V30 129 H -0.4906 6.2515 -1.3304 0
M  V30 130 H 1.4574 7.9470 -1.0844 0
M  V30 131 H 3.5218 7.9970 -2.4177 0
M  V30 132 H 4.5739 4.1290 -0.9712 0
M  V30 133 H 2.5058 4.0804 0.4080 0
M  V30 134 H 0.7452 4.0937 3.9479 0
M  V30 135 H 2.5367 4.0610 5.6288 0
M  V30 136 H 4.6103 7.1020 3.4745 0
M  V30 137 H 2.7844 7.2163 1.8507 0
M  V30 138 H -0.9162 5.5301 3.4940 0
M  V30 139 H -3.2486 7.0724 3.5859 0
M  V30 140 H -5.2931 6.4154 4.7764 0
M  V30 141 H -5.5728 2.8883 2.3901 0
M  V30 142 H -3.5437 3.5731 1.1521 0
M  V30 143 H -4.2639 7.1398 0.6238 0
M  V30 144 H -6.1988 7.0363 -0.8339 0
M  V30 145 C -7.0230 2.0959 -3.9114 0
M  V30 146 C -6.0816 2.2842 -2.8943 0
M  V30 147 C -5.9740 1.3841 -1.8567 0
M  V30 148 C -6.8154 0.2730 -1.7897 0
M  V30 149 C -6.6836 -0.6884 -0.6847 0
M  V30 150 C -6.6105 -0.2028 0.6151 0
M  V30 151 C -6.5734 -1.0556 1.7118 0
M  V30 152 C -6.5257 -0.4356 3.0519 0
M  V30 153 C -7.5800 -0.5854 3.9494 0
M  V30 154 C -7.5986 0.1353 5.1287 0
M  V30 155 C -6.5659 1.0286 5.4193 0
M  V30 156 C -5.4860 1.1516 4.5469 0
M  V30 157 C -5.4671 0.4149 3.3785 0
M  V30 158 C -6.6257 -2.4359 1.5009 0
M  V30 159 C -6.5810 -3.3871 2.6323 0
M  V30 160 C -5.3897 -3.6001 3.3238 0
M  V30 161 C -5.3449 -4.4846 4.3835 0
M  V30 162 C -6.4922 -5.1878 4.7518 0
M  V30 163 C -7.6833 -4.9900 4.0506 0
M  V30 164 C -7.7231 -4.0934 3.0015 0
M  V30 165 C -6.6560 -2.9253 0.2021 0
M  V30 166 C -6.6627 -2.0745 -0.8980 0
M  V30 167 C -6.5447 -2.6486 -2.2479 0
M  V30 168 C -7.3307 -3.7359 -2.6286 0
M  V30 169 C -7.1439 -4.3450 -3.8519 0
M  V30 170 C -6.1745 -3.8611 -4.7291 0
M  V30 171 C -5.4106 -2.7487 -4.3766 0
M  V30 172 C -5.5860 -2.1622 -3.1385 0
M  V30 173 C -7.8143 0.1310 -2.7548 0
M  V30 174 C -7.9244 1.0280 -3.7966 0
M  V30 175 H -5.4075 3.1211 -2.9421 0
M  V30 176 H -5.2054 1.5198 -1.1135 0
M  V30 177 H -6.6340 0.8620 0.7785 0
M  V30 178 H -8.4069 -1.2329 3.7066 0
M  V30 179 H -8.4514 0.0861 5.7884 0
M  V30 180 H -4.6790 1.8160 4.8110 0
M  V30 181 H -4.6302 0.4973 2.7030 0
M  V30 182 H -4.4949 -3.0828 3.0170 0
M  V30 183 H -4.4253 -4.6761 4.9125 0
M  V30 184 H -8.5810 -5.5036 4.3613 0
M  V30 185 H -8.6523 -3.9376 2.4745 0
M  V30 186 H -6.6373 -3.9918 0.0437 0
M  V30 187 H -8.1034 -4.1035 -1.9713 0
M  V30 188 H -7.7657 -5.1716 -4.1546 0
M  V30 189 H -4.6463 -2.4036 -5.0544 0
M  V30 190 H -4.9559 -1.3389 -2.8451 0
M  V30 191 H -8.5225 -0.6794 -2.6821 0
M  V30 192 H -8.7370 0.9210 -4.4983 0
M  V30 193 C -3.4088 4.2093 -6.1336 0
M  V30 194 C -3.7086 3.0123 -5.4727 0
M  V30 195 C -2.7807 2.0069 -5.3487 0
M  V30 196 C -1.5190 2.1269 -5.9392 0
M  V30 197 C -0.5758 1.0113 -5.7998 0
M  V30 198 C -1.0922 -0.2802 -5.8797 0
M  V30 199 C -0.3024 -1.4137 -5.7458 0
M  V30 200 C -0.9811 -2.7205 -5.7546 0
M  V30 201 C -1.9159 -3.0018 -6.7535 0
M  V30 202 C -2.6350 -4.1771 -6.7333 0
M  V30 203 C -2.4308 -5.1142 -5.7175 0
M  V30 204 C -1.4842 -4.8444 -4.7220 0
M  V30 205 C -0.7801 -3.6571 -4.7378 0
M  V30 206 C 1.0800 -1.2562 -5.5632 0
M  V30 207 C 2.0124 -2.3918 -5.5376 0
M  V30 208 C 3.1009 -2.3949 -4.6639 0
M  V30 209 C 4.0426 -3.4036 -4.7156 0
M  V30 210 C 3.8770 -4.4572 -5.6121 0
M  V30 211 C 2.7756 -4.4836 -6.4642 0
M  V30 212 C 1.8679 -3.4453 -6.4417 0
M  V30 213 C 1.6003 0.0325 -5.4923 0
M  V30 214 C 0.8031 1.1668 -5.5916 0
M  V30 215 C 1.4515 2.4824 -5.4475 0
M  V30 216 C 2.5731 2.7755 -6.2255 0
M  V30 217 C 3.2384 3.9741 -6.0755 0
M  V30 218 C 2.7753 4.9146 -5.1543 0
M  V30 219 C 1.6535 4.6321 -4.3727 0
M  V30 220 C 1.0097 3.4170 -4.5101 0
M  V30 221 C -1.2423 3.2830 -6.6750 0
M  V30 222 C -2.1590 4.3113 -6.7654 0
M  V30 223 H -4.6917 2.8940 -5.0489 0
M  V30 224 H -3.0255 1.1325 -4.7688 0
M  V30 225 H -2.1456 -0.4108 -6.0646 0
M  V30 226 H -2.0630 -2.3072 -7.5660 0
M  V30 227 H -3.3200 -4.4097 -7.5302 0
M  V30 228 H -1.3461 -5.5396 -3.9094 0
M  V30 229 H -0.0815 -3.4408 -3.9467 0
M  V30 230 H 3.2055 -1.6084 -3.9346 0
M  V30 231 H 4.8873 -3.4147 -4.0465 0
M  V30 232 H 2.6789 -5.2856 -7.1772 0
M  V30 233 H 1.0601 -3.4422 -7.1550 0
M  V30 234 H 2.6629 0.1632 -5.3652 0
M  V30 235 H 2.9157 2.0704 -6.9665 0
M  V30 236 H 4.0903 4.2138 -6.6909 0
M  V30 237 H 1.3412 5.3477 -3.6294 0
M  V30 238 H 0.1698 3.1765 -3.8799 0
M  V30 239 H -0.3037 3.3772 -7.1974 0
M  V30 240 H -1.8970 5.1803 -7.3467 0
M  V30 241 C -4.6893 -7.0465 -3.0126 0
M  V30 242 C -3.9675 -5.8703 -2.8030 0
M  V30 243 C -3.0410 -5.8022 -1.7821 0
M  V30 244 C -2.8089 -6.9084 -0.9658 0
M  V30 245 C -1.8359 -6.8252 0.1424 0
M  V30 246 C -2.3107 -6.8242 1.4464 0
M  V30 247 C -1.4491 -6.7172 2.5324 0
M  V30 248 C -2.0039 -6.6602 3.8942 0
M  V30 249 C -2.9915 -7.5588 4.2985 0
M  V30 250 C -3.5801 -7.4485 5.5420 0
M  V30 251 C -3.1558 -6.4554 6.4224 0
M  V30 252 C -2.1350 -5.5828 6.0481 0
M  V30 253 C -1.5907 -5.6679 4.7829 0
M  V30 254 C -0.0719 -6.6213 2.2974 0
M  V30 255 C 0.9030 -6.6621 3.4141 0
M  V30 256 C 1.5423 -5.5128 3.8717 0
M  V30 257 C 2.4654 -5.5884 4.8975 0
M  V30 258 C 2.7961 -6.8256 5.4524 0
M  V30 259 C 2.1368 -7.9742 5.0177 0
M  V30 260 C 1.1979 -7.8866 4.0070 0
M  V30 261 C 0.3998 -6.5852 0.9936 0
M  V30 262 C -0.4639 -6.6925 -0.0931 0
M  V30 263 C 0.1236 -6.7752 -1.4454 0
M  V30 264 C -0.0661 -7.9222 -2.2155 0
M  V30 265 C 0.6134 -8.0867 -3.4067 0
M  V30 266 C 1.5117 -7.1096 -3.8416 0
M  V30 267 C 1.6690 -5.9373 -3.1036 0
M  V30 268 C 0.9706 -5.7725 -1.9216 0
M  V30 269 C -3.5319 -8.0805 -1.1784 0
M  V30 270 C -4.4631 -8.1555 -2.1940 0
M  V30 271 H -4.1797 -5.0134 -3.4224 0
M  V30 272 H -2.5082 -4.8831 -1.5989 0
M  V30 273 H -3.3734 -6.8861 1.6179 0
M  V30 274 H -3.3026 -8.3549 3.6403 0
M  V30 275 H -4.3416 -8.1442 5.8564 0
M  V30 276 H -1.8371 -4.8042 6.7312 0
M  V30 277 H -0.8627 -4.9376 4.4749 0
M  V30 278 H 1.3131 -4.5562 3.4286 0
M  V30 279 H 2.8981 -4.6968 5.3227 0
M  V30 280 H 2.3952 -8.9327 5.4422 0
M  V30 281 H 0.7001 -8.7831 3.6714 0
M  V30 282 H 1.4625 -6.5206 0.8260 0
M  V30 283 H -0.7129 -8.7082 -1.8609 0
M  V30 284 H 0.5280 -9.0079 -3.9625 0
M  V30 285 H 2.3320 -5.1748 -3.4798 0
M  V30 286 H 1.0829 -4.8619 -1.3545 0
M  V30 287 H -3.3576 -8.9449 -0.5558 0
M  V30 288 H -4.9831 -9.0819 -2.3864 0
M  V30 289 Zn 6.8325 5.3058 5.3902 0 CHG=2
M  V30 290 C 11.4129 3.9480 6.2897 0
M  V30 291 C 10.3128 3.1208 6.4607 0
M  V30 292 C 9.0529 3.5969 6.1056 0
M  V30 293 H 10.4321 2.1279 6.8644 0
M  V30 294 N 8.8740 4.8288 5.5997 0
M  V30 295 C 7.8596 2.7903 6.2333 0
M  V30 296 C 9.9279 5.6091 5.4280 0
M  V30 297 C 11.2185 5.2147 5.7580 0
M  V30 298 H 9.7434 6.5882 5.0137 0
M  V30 299 H 12.0480 5.8865 5.6069 0
M  V30 300 H 12.4024 3.6149 6.5625 0
M  V30 301 N 6.7364 3.2335 5.8083 0
M  V30 302 H 7.9655 1.7989 6.6645 0
M  V30 303 C 6.0623 5.7621 10.1794 0
M  V30 304 C 5.0546 5.6696 9.2319 0
M  V30 305 C 5.4027 5.6025 7.8844 0
M  V30 306 H 4.0192 5.6566 9.5333 0
M  V30 307 N 6.6820 5.6043 7.4760 0
M  V30 308 C 4.4019 5.5762 6.8428 0
M  V30 309 C 7.6381 5.7093 8.3844 0
M  V30 310 C 7.3799 5.7928 9.7466 0
M  V30 311 H 8.6546 5.7349 8.0232 0
M  V30 312 H 8.1948 5.8817 10.4469 0
M  V30 313 H 5.8316 5.8180 11.2319 0
M  V30 314 N 4.7302 5.5568 5.6048 0
M  V30 315 H 3.3628 5.6281 7.1590 0
M  V30 316 C 7.5520 9.8584 3.8307 0
M  V30 317 C 7.3932 8.7702 2.9831 0
M  V30 318 C 7.1829 7.5135 3.5429 0
M  V30 319 H 7.4389 8.8993 1.9132 0
M  V30 320 N 7.1161 7.3250 4.8719 0
M  V30 321 C 7.0479 6.3143 2.7352 0
M  V30 322 C 7.2614 8.3643 5.6743 0
M  V30 323 C 7.4859 9.6526 5.2001 0
M  V30 324 H 7.1984 8.1730 6.7344 0
M  V30 325 H 7.6041 10.4712 5.8917 0
M  V30 326 H 7.7240 10.8472 3.4346 0
M  V30 327 N 6.9698 5.1749 3.3026 0
M  V30 328 H 7.0488 6.4293 1.6541 0
M  V30 329 Zn -5.8007 -5.6358 7.8314 0 CHG=2
M  V30 330 C -10.2852 -3.8538 7.5186 0
M  V30 331 C -9.1495 -3.1609 7.1296 0
M  V30 332 C -7.8983 -3.7146 7.3919 0
M  V30 333 H -9.2334 -2.2115 6.6263 0
M  V30 334 N -7.7633 -4.9097 7.9929 0
M  V30 335 C -6.6651 -3.0227 7.0903 0
M  V30 336 C -8.8493 -5.5555 8.3839 0
M  V30 337 C -10.1327 -5.0680 8.1718 0
M  V30 338 H -8.6996 -6.4982 8.8877 0
M  V30 339 H -10.9865 -5.6321 8.5113 0
M  V30 340 H -11.2713 -3.4596 7.3286 0
M  V30 341 N -5.5357 -3.5608 7.3732 0
M  V30 342 H -6.7388 -2.0215 6.6714 0
M  V30 343 C -4.0934 -5.8852 12.3613 0
M  V30 344 C -3.3401 -6.1909 11.2358 0
M  V30 345 C -3.9111 -6.0100 9.9796 0
M  V30 346 H -2.3357 -6.5709 11.3348 0
M  V30 347 N -5.1617 -5.5384 9.8263 0
M  V30 348 C -3.1997 -6.3026 8.7479 0
M  V30 349 C -5.8707 -5.2350 10.9005 0
M  V30 350 C -5.3792 -5.3933 12.1916 0
M  V30 351 H -6.8630 -4.8467 10.7291 0
M  V30 352 H -5.9906 -5.1366 13.0415 0
M  V30 353 H -3.6859 -6.0224 13.3509 0
M  V30 354 N -3.8276 -6.2651 7.6377 0
M  V30 355 H -2.1433 -6.5519 8.8103 0
M  V30 356 C -7.5738 -10.1922 7.9172 0
M  V30 357 C -7.6031 -9.3667 6.8038 0
M  V30 358 C -7.0371 -8.0964 6.8929 0
M  V30 359 H -8.0578 -9.7026 5.8850 0
M  V30 360 N -6.4634 -7.6471 8.0201 0
M  V30 361 C -7.0317 -7.1886 5.7691 0
M  V30 362 C -6.4323 -8.4430 9.0758 0
M  V30 363 C -6.9731 -9.7224 9.0760 0
M  V30 364 H -5.9642 -8.0538 9.9666 0
M  V30 365 H -6.9288 -10.3321 9.9640 0
M  V30 366 H -8.0084 -11.1793 7.8847 0
M  V30 367 N -6.4262 -6.0639 5.8405 0
M  V30 368 H -7.5410 -7.5135 4.8662 0
M  V30 369 Zn -6.7220 3.9658 6.5826 0 CHG=2
M  V30 370 C -6.3824 8.6398 7.7646 0
M  V30 371 C -5.2935 7.7821 7.6787 0
M  V30 372 C -5.5095 6.4673 7.2780 0
M  V30 373 H -4.3021 8.1288 7.9240 0
M  V30 374 N -6.7350 6.0095 6.9657 0
M  V30 375 C -4.4336 5.4992 7.1604 0
M  V30 376 C -7.7673 6.8318 7.0378 0
M  V30 377 C -7.6407 8.1587 7.4343 0
M  V30 378 H -8.7299 6.4250 6.7675 0
M  V30 379 H -8.5081 8.7971 7.4819 0
M  V30 380 H -6.2531 9.6641 8.0781 0
M  V30 381 N -4.7080 4.2785 6.9119 0
M  V30 382 H -3.4137 5.8479 7.3011 0
M  V30 383 C -7.4997 2.5010 11.1809 0
M  V30 384 C -7.3460 1.6347 10.1086 0
M  V30 385 C -7.1193 2.1686 8.8423 0
M  V30 386 H -7.3994 0.5675 10.2546 0
M  V30 387 N -7.0394 3.4918 8.6246 0
M  V30 388 C -6.9612 1.3323 7.6761 0
M  V30 389 C -7.1841 4.3110 9.6523 0
M  V30 390 C -7.4179 3.8653 10.9481 0
M  V30 391 H -7.1197 5.3682 9.4487 0
M  V30 392 H -7.5357 4.5747 11.7513 0
M  V30 393 H -7.6820 2.1256 12.1759 0
M  V30 394 N -6.6232 1.8459 6.5543 0
M  V30 395 H -7.1262 0.2664 7.7965 0
M  V30 396 C -11.1310 2.7446 4.9652 0
M  V30 397 C -10.0451 2.9846 4.1363 0
M  V30 398 C -8.8479 3.4095 4.7053 0
M  V30 399 H -10.1279 2.8485 3.0698 0
M  V30 400 N -8.7050 3.5681 6.0328 0
M  V30 401 C -7.6943 3.7615 3.9065 0
M  V30 402 C -9.7482 3.3521 6.8172 0
M  V30 403 C -10.9835 2.9433 6.3300 0
M  V30 404 H -9.6013 3.5113 7.8743 0
M  V30 405 H -11.8063 2.7879 7.0093 0
M  V30 406 H -12.0768 2.4189 4.5608 0
M  V30 407 N -6.6295 4.1843 4.4764 0
M  V30 408 H -7.7912 3.7113 2.8251 0
M  V30 409 Zn 5.5218 6.3186 -4.6294 0 CHG=2
M  V30 410 C 7.4308 5.8277 -9.0590 0
M  V30 411 C 7.5175 4.8615 -8.0673 0
M  V30 412 C 6.8636 5.0819 -6.8577 0
M  V30 413 H 8.0807 3.9564 -8.2311 0
M  V30 414 N 6.1546 6.1978 -6.6219 0
M  V30 415 C 6.8838 4.1105 -5.7872 0
M  V30 416 C 6.0656 7.1100 -7.5753 0
M  V30 417 C 6.6856 6.9712 -8.8110 0
M  V30 418 H 5.4804 7.9893 -7.3538 0
M  V30 419 H 6.5898 7.7428 -9.5579 0
M  V30 420 H 7.9304 5.6928 -10.0058 0
M  V30 421 N 6.1759 4.2922 -4.7379 0
M  V30 422 H 7.4878 3.2185 -5.9269 0
M  V30 423 C 10.0718 6.2556 -2.9158 0
M  V30 424 C 8.9531 5.9255 -2.1654 0
M  V30 425 C 7.6927 6.1036 -2.7291 0
M  V30 426 H 9.0586 5.5349 -1.1658 0
M  V30 427 N 7.5284 6.5577 -3.9835 0
M  V30 428 C 6.4689 5.8821 -1.9915 0
M  V30 429 C 8.5980 6.8918 -4.6854 0
M  V30 430 C 9.8911 6.7628 -4.1940 0
M  V30 431 H 8.4267 7.2799 -5.6777 0
M  V30 432 H 10.7309 7.0532 -4.8046 0
M  V30 433 H 11.0662 6.1307 -2.5163 0
M  V30 434 N 5.3419 6.1408 -2.5405 0
M  V30 435 H 6.5452 5.5611 -0.9557 0
M  V30 436 C 3.8516 10.8498 -4.9999 0
M  V30 437 C 3.0505 9.7207 -5.1013 0
M  V30 438 C 3.6378 8.4676 -4.9496 0
M  V30 439 H 1.9945 9.8144 -5.2992 0
M  V30 440 N 4.9514 8.3225 -4.6987 0
M  V30 441 C 2.8808 7.2349 -5.0612 0
M  V30 442 C 5.7089 9.4008 -4.5934 0
M  V30 443 C 5.2041 10.6882 -4.7385 0
M  V30 444 H 6.7544 9.2383 -4.3812 0
M  V30 445 H 5.8575 11.5411 -4.6484 0
M  V30 446 H 3.4320 11.8368 -5.1186 0
M  V30 447 N 3.4901 6.1116 -5.0247 0
M  V30 448 H 1.8056 7.3081 -5.2051 0
M  V30 449 Zn 4.4163 -7.4851 -5.0830 0 CHG=2
M  V30 450 C 3.2621 -11.7160 -2.9823 0
M  V30 451 C 3.5363 -10.5529 -2.2783 0
M  V30 452 C 3.9268 -9.4177 -2.9838 0
M  V30 453 H 3.4520 -10.5281 -1.2036 0
M  V30 454 N 4.0227 -9.4083 -4.3247 0
M  V30 455 C 4.2987 -8.1871 -2.3204 0
M  V30 456 C 3.7732 -10.5245 -4.9900 0
M  V30 457 C 3.3926 -11.7047 -4.3633 0
M  V30 458 H 3.8798 -10.4843 -6.0631 0
M  V30 459 H 3.2063 -12.5903 -4.9495 0
M  V30 460 H 2.9602 -12.6168 -2.4710 0
M  V30 461 N 4.6998 -7.1856 -3.0090 0
M  V30 462 H 4.2746 -8.1686 -1.2338 0
M  V30 463 C 9.0788 -7.4153 -6.3881 0
M  V30 464 C 8.2550 -6.2979 -6.3974 0
M  V30 465 C 6.9433 -6.4310 -5.9514 0
M  V30 466 H 8.6235 -5.3480 -6.7514 0
M  V30 467 N 6.4577 -7.6025 -5.5055 0
M  V30 468 C 6.0097 -5.3192 -5.9362 0
M  V30 469 C 7.2486 -8.6615 -5.4881 0
M  V30 470 C 8.5687 -8.6182 -5.9221 0
M  V30 471 H 6.8207 -9.5789 -5.1132 0
M  V30 472 H 9.1802 -9.5057 -5.8950 0
M  V30 473 H 10.0989 -7.3500 -6.7340 0
M  V30 474 N 4.7851 -5.5276 -5.6462 0
M  V30 475 H 6.3866 -4.3322 -6.1921 0
M  V30 476 C 2.7633 -8.7292 -9.5044 0
M  V30 477 C 1.9411 -8.4352 -8.4267 0
M  V30 478 C 2.5265 -8.0836 -7.2126 0
M  V30 479 H 0.8683 -8.4763 -8.5297 0
M  V30 480 N 3.8585 -8.0167 -7.0519 0
M  V30 481 C 1.7368 -7.7696 -6.0447 0
M  V30 482 C 4.6360 -8.2955 -8.0843 0
M  V30 483 C 4.1372 -8.6575 -9.3302 0
M  V30 484 H 5.7012 -8.2377 -7.9244 0
M  V30 485 H 4.8131 -8.8812 -10.1397 0
M  V30 486 H 2.3475 -9.0101 -10.4595 0
M  V30 487 N 2.2930 -7.3163 -4.9853 0
M  V30 488 H 0.6636 -7.9192 -6.1141 0
M  V30 489 Zn -5.2899 -6.5395 -6.0880 0 CHG=2
M  V30 490 C -5.6767 -4.9485 -10.6493 0
M  V30 491 C -5.9436 -4.1621 -9.5364 0
M  V30 492 C -5.7454 -4.7054 -8.2705 0
M  V30 493 H -6.3039 -3.1523 -9.6524 0
M  V30 494 N -5.2949 -5.9613 -8.0975 0
M  V30 495 C -6.0122 -3.9623 -7.0516 0
M  V30 496 C -5.0321 -6.7037 -9.1596 0
M  V30 497 C -5.2095 -6.2404 -10.4588 0
M  V30 498 H -4.6627 -7.7002 -8.9713 0
M  V30 499 H -4.9861 -6.8785 -11.2985 0
M  V30 500 H -5.8261 -4.5621 -11.6456 0
M  V30 501 N -5.9355 -4.5556 -5.9242 0
M  V30 502 H -6.2939 -2.9160 -7.1407 0
M  V30 503 C -9.7785 -8.4578 -5.9048 0
M  V30 504 C -8.9054 -8.4175 -4.8287 0
M  V30 505 C -7.6666 -7.8001 -4.9903 0
M  V30 506 H -9.1802 -8.8586 -3.8835 0
M  V30 507 N -7.2928 -7.2418 -6.1528 0
M  V30 508 C -6.7140 -7.7143 -3.9086 0
M  V30 509 C -8.1345 -7.2759 -7.1723 0
M  V30 510 C -9.3874 -7.8713 -7.0997 0
M  V30 511 H -7.8048 -6.8167 -8.0912 0
M  V30 512 H -10.0370 -7.8791 -7.9599 0
M  V30 513 H -10.7429 -8.9338 -5.8163 0
M  V30 514 N -5.6107 -7.0830 -4.0619 0
M  V30 515 H -6.9879 -8.1802 -2.9668 0
M  V30 516 C -3.5556 -11.0337 -5.6026 0
M  V30 517 C -2.8315 -9.8886 -5.3099 0
M  V30 518 C -3.3753 -8.6467 -5.6303 0
M  V30 519 H -1.8654 -9.9586 -4.8373 0
M  V30 520 N -4.5889 -8.5270 -6.1963 0
M  V30 521 C -2.6504 -7.4106 -5.4417 0
M  V30 522 C -5.2622 -9.6239 -6.5003 0
M  V30 523 C -4.7881 -10.9002 -6.2246 0
M  V30 524 H -6.2170 -9.4904 -6.9852 0
M  V30 525 H -5.3756 -11.7632 -6.4938 0
M  V30 526 H -3.1705 -12.0129 -5.3643 0
M  V30 527 N -3.1833 -6.2918 -5.7716 0
M  V30 528 H -1.6290 -7.4766 -5.0738 0
M  V30 529 Zn 5.9254 -6.7058 6.1910 0 CHG=2
M  V30 530 C 10.7599 -5.9033 5.9704 0
M  V30 531 C 9.8018 -4.9014 5.9849 0
M  V30 532 C 8.4602 -5.2565 6.1052 0
M  V30 533 H 10.0915 -3.8654 5.9112 0
M  V30 534 N 8.0652 -6.5378 6.1889 0
M  V30 535 C 7.4096 -4.2672 6.1953 0
M  V30 536 C 8.9851 -7.4876 6.1865 0
M  V30 537 C 10.3445 -7.2222 6.0815 0
M  V30 538 H 8.6356 -8.5043 6.2778 0
M  V30 539 H 11.0564 -8.0318 6.0895 0
M  V30 540 H 11.8090 -5.6671 5.8820 0
M  V30 541 N 6.1963 -4.6311 6.3760 0
M  V30 542 H 7.6999 -3.2204 6.1559 0
M  V30 543 C 5.2657 -7.9606 10.8329 0
M  V30 544 C 4.2543 -7.9539 9.8827 0
M  V30 545 C 4.5481 -7.5123 8.5950 0
M  V30 546 H 3.2604 -8.2861 10.1381 0
M  V30 547 N 5.7760 -7.0894 8.2497 0
M  V30 548 C 3.5413 -7.4470 7.5528 0
M  V30 549 C 6.7335 -7.0884 9.1605 0
M  V30 550 C 6.5278 -7.5165 10.4669 0
M  V30 551 H 7.7033 -6.7365 8.8443 0
M  V30 552 H 7.3388 -7.5052 11.1770 0
M  V30 553 H 5.0765 -8.3035 11.8384 0
M  V30 554 N 3.8009 -6.8889 6.4330 0
M  V30 555 H 2.5557 -7.8455 7.7841 0
M  V30 556 C 6.6624 -11.3734 4.8569 0
M  V30 557 C 6.7431 -10.2941 3.9907 0
M  V30 558 C 6.4452 -9.0204 4.4710 0
M  V30 559 H 7.0392 -10.4373 2.9636 0
M  V30 560 N 6.0721 -8.8039 5.7428 0
M  V30 561 C 6.5231 -7.8535 3.6215 0
M  V30 562 C 5.9894 -9.8404 6.5610 0
M  V30 563 C 6.2763 -11.1418 6.1689 0
M  V30 564 H 5.6889 -9.6404 7.5775 0
M  V30 565 H 6.2031 -11.9505 6.8780 0
M  V30 566 H 6.8966 -12.3722 4.5226 0
M  V30 567 N 6.1751 -6.7044 4.0607 0
M  V30 568 H 6.8671 -8.0002 2.6007 0
M  V30 569 Zn -6.4412 5.1007 -5.2317 0 CHG=2
M  V30 570 C -11.0984 5.3656 -3.7483 0
M  V30 571 C -10.0041 5.4538 -2.9034 0
M  V30 572 C -8.7229 5.4312 -3.4539 0
M  V30 573 H -10.1422 5.5485 -1.8382 0
M  V30 574 N -8.5184 5.3031 -4.7746 0
M  V30 575 C -7.5482 5.5826 -2.6303 0
M  V30 576 C -9.5675 5.2313 -5.5761 0
M  V30 577 C -10.8762 5.2621 -5.1138 0
M  V30 578 H -9.3684 5.1539 -6.6332 0
M  V30 579 H -11.6976 5.2093 -5.8100 0
M  V30 580 H -12.1044 5.3864 -3.3590 0
M  V30 581 N -6.3630 5.5402 -3.1244 0
M  V30 582 H -7.7240 5.7396 -1.5697 0
M  V30 583 C -5.8005 9.7495 -6.5237 0
M  V30 584 C -4.8485 8.7645 -6.7295 0
M  V30 585 C -5.1037 7.4709 -6.2715 0
M  V30 586 H -3.9281 8.9934 -7.2431 0
M  V30 587 N -6.2419 7.1570 -5.6330 0
M  V30 588 C -4.1413 6.4100 -6.4583 0
M  V30 589 C -7.1412 8.1048 -5.4282 0
M  V30 590 C -6.9695 9.4145 -5.8548 0
M  V30 591 H -8.0402 7.8171 -4.9060 0
M  V30 592 H -7.7336 10.1524 -5.6710 0
M  V30 593 H -5.6384 10.7572 -6.8737 0
M  V30 594 N -4.3654 5.2189 -6.0359 0
M  V30 595 H -3.2204 6.6969 -6.9562 0
M  V30 596 C -7.7931 3.6288 -9.6864 0
M  V30 597 C -7.8019 2.8051 -8.5730 0
M  V30 598 C -7.3724 3.3176 -7.3483 0
M  V30 599 H -8.1459 1.7859 -8.6506 0
M  V30 600 N -6.9359 4.5799 -7.2210 0
M  V30 601 C -7.3854 2.5047 -6.1572 0
M  V30 602 C -6.9250 5.3598 -8.2894 0
M  V30 603 C -7.3459 4.9345 -9.5418 0
M  V30 604 H -6.5730 6.3701 -8.1530 0
M  V30 605 H -7.3265 5.6121 -10.3800 0
M  V30 606 H -8.1277 3.2680 -10.6468 0
M  V30 607 N -6.9910 2.9507 -5.0196 0
M  V30 608 H -7.7269 1.4813 -6.2850 0
M  V30 END ATOM
M  V30 BEGIN BOND
M  V30 1 2 1 2
M  V30 2 1 2 3
M  V30 3 2 3 4
M  V30 4 1 4 5
M  V30 5 2 5 6
M  V30 6 1 6 7
M  V30 7 1 7 8
M  V30 8 2 8 9
M  V30 9 1 9 10
M  V30 10 2 10 11
M  V30 11 1 11 12
M  V30 12 2 12 13
M  V30 13 2 7 14
M  V30 14 1 14 15
M  V30 15 2 15 16
M  V30 16 1 16 17
M  V30 17 2 17 18
M  V30 18 1 18 19
M  V30 19 2 19 20
M  V30 20 1 14 21
M  V30 21 2 21 22
M  V30 22 1 22 23
M  V30 23 2 23 24
M  V30 24 1 24 25
M  V30 25 2 25 26
M  V30 26 1 26 27
M  V30 27 2 27 28
M  V30 28 1 4 29
M  V30 29 2 29 30
M  V30 30 1 30 1
M  V30 31 1 22 5
M  V30 32 1 28 23
M  V30 33 1 13 8
M  V30 34 1 20 15
M  V30 35 1 2 31
M  V30 36 1 3 32
M  V30 37 1 6 33
M  V30 38 1 9 34
M  V30 39 1 10 35
M  V30 40 1 12 36
M  V30 41 1 13 37
M  V30 42 1 16 38
M  V30 43 1 17 39
M  V30 44 1 19 40
M  V30 45 1 20 41
M  V30 46 1 21 42
M  V30 47 1 24 43
M  V30 48 1 25 44
M  V30 49 1 27 45
M  V30 50 1 28 46
M  V30 51 1 29 47
M  V30 52 1 30 48
M  V30 53 2 49 50
M  V30 54 1 50 51
M  V30 55 2 51 52
M  V30 56 1 52 53
M  V30 57 2 53 54
M  V30 58 1 54 55
M  V30 59 1 55 56
M  V30 60 2 56 57
M  V30 61 1 57 58
M  V30 62 2 58 59
M  V30 63 1 59 60
M  V30 64 2 60 61
M  V30 65 2 55 62
M  V30 66 1 62 63
M  V30 67 2 63 64
M  V30 68 1 64 65
M  V30 69 2 65 66
M  V30 70 1 66 67
M  V30 71 2 67 68
M  V30 72 1 62 69
M  V30 73 2 69 70
M  V30 74 1 70 71
M  V30 75 2 71 72
M  V30 76 1 72 73
M  V30 77 2 73 74
M  V30 78 1 74 75
M  V30 79 2 75 76
M  V30 80 1 52 77
M  V30 81 2 77 78
M  V30 82 1 78 49
M  V30 83 1 70 53
M  V30 84 1 76 71
M  V30 85 1 61 56
M  V30 86 1 68 63
M  V30 87 1 50 79
M  V30 88 1 51 80
M  V30 89 1 54 81
M  V30 90 1 57 82
M  V30 91 1 58 83
M  V30 92 1 60 84
M  V30 93 1 61 85
M  V30 94 1 64 86
M  V30 95 1 65 87
M  V30 96 1 67 88
M  V30 97 1 68 89
M  V30 98 1 69 90
M  V30 99 1 72 91
M  V30 100 1 73 92
M  V30 101 1 75 93
M  V30 102 1 76 94
M  V30 103 1 77 95
M  V30 104 1 78 96
M  V30 105 2 97 98
M  V30 106 1 98 99
M  V30 107 2 99 100
M  V30 108 1 100 101
M  V30 109 2 101 102
M  V30 110 1 102 103
M  V30 111 1 103 104
M  V30 112 2 104 105
M  V30 113 1 105 106
M  V30 114 2 106 107
M  V30 115 1 107 108
M  V30 116 2 108 109
M  V30 117 2 103 110
M  V30 118 1 110 111
M  V30 119 2 111 112
M  V30 120 1 112 113
M  V30 121 2 113 114
M  V30 122 1 114 115
M  V30 123 2 115 116
M  V30 124 1 110 117
M  V30 125 2 117 118
M  V30 126 1 118 119
M  V30 127 2 119 120
M  V30 128 1 120 121
M  V30 129 2 121 122
M  V30 130 1 122 123
M  V30 131 2 123 124
M  V30 132 1 100 125
M  V30 133 2 125 126
M  V30 134 1 126 97
M  V30 135 1 118 101
M  V30 136 1 124 119
M  V30 137 1 109 104
M  V30 138 1 116 111
M  V30 139 1 98 127
M  V30 140 1 99 128
M  V30 141 1 102 129
M  V30 142 1 105 130
M  V30 143 1 106 131
M  V30 144 1 108 132
M  V30 145 1 109 133
M  V30 146 1 112 134
M  V30 147 1 113 135
M  V30 148 1 115 136
M  V30 149 1 116 137
M  V30 150 1 117 138
M  V30 151 1 120 139
M  V30 152 1 121 140
M  V30 153 1 123 141
M  V30 154 1 124 142
M  V30 155 1 125 143
M  V30 156 1 126 144
M  V30 157 2 145 146
M  V30 158 1 146 147
M  V30 159 2 147 148
M  V30 160 1 148 149
M  V30 161 2 149 150
M  V30 162 1 150 151
M  V30 163 1 151 152
M  V30 164 2 152 153
M  V30 165 1 153 154
M  V30 166 2 154 155
M  V30 167 1 155 156
M  V30 168 2 156 157
M  V30 169 2 151 158
M  V30 170 1 158 159
M  V30 171 2 159 160
M  V30 172 1 160 161
M  V30 173 2 161 162
M  V30 174 1 162 163
M  V30 175 2 163 164
M  V30 176 1 158 165
M  V30 177 2 165 166
M  V30 178 1 166 167
M  V30 179 2 167 168
M  V30 180 1 168 169
M  V30 181 2 169 170
M  V30 182 1 170 171
M  V30 183 2 171 172
M  V30 184 1 148 173
M  V30 185 2 173 174
M  V30 186 1 174 145
M  V30 187 1 166 149
M  V30 188 1 172 167
M  V30 189 1 157 152
M  V30 190 1 164 159
M  V30 191 1 146 175
M  V30 192 1 147 176
M  V30 193 1 150 177
M  V30 194 1 153 178
M  V30 195 1 154 179
M  V30 196 1 156 180
M  V30 197 1 157 181
M  V30 198 1 160 182
M  V30 199 1 161 183
M  V30 200 1 163 184
M  V30 201 1 164 185
M  V30 202 1 165 186
M  V30 203 1 168 187
M  V30 204 1 169 188
M  V30 205 1 171 189
M  V30 206 1 172 190
M  V30 207 1 173 191
M  V30 208 1 174 192
M  V30 209 2 193 194
M  V30 210 1 194 195
M  V30 211 2 195 196
M  V30 212 1 196 197
M  V30 213 2 197 198
M  V30 214 1 198 199
M  V30 215 1 199 200
M  V30 216 2 200 201
M  V30 217 1 201 202
M  V30 218 2 202 203
M  V30 219 1 203 204
M  V30 220 2 204 205
M  V30 221 2 199 206
M  V30 222 1 206 207
M  V30 223 2 207 208
M  V30 224 1 208 209
M  V30 225 2 209 210
M  V30 226 1 210 211
M  V30 227 2 211 212
M  V30 228 1 206 213
M  V30 229 2 213 214
M  V30 230 1 214 215
M  V30 231 2 215 216
M  V30 232 1 216 217
M  V30 233 2 217 218
M  V30 234 1 218 219
M  V30 235 2 219 220
M  V30 236 1 196 221
M  V30 237 2 221 222
M  V30 238 1 222 193
M  V30 239 1 214 197
M  V30 240 1 220 215
M  V30 241 1 205 200
M  V30 242 1 212 207
M  V30 243 1 194 223
M  V30 244 1 195 224
M  V30 245 1 198 225
M  V30 246 1 201 226
M  V30 247 1 202 227
M  V30 248 1 204 228
M  V30 249 1 205 229
M  V30 250 1 208 230
M  V30 251 1 209 231
M  V30 252 1 211 232
M  V30 253 1 212 233
M  V30 254 1 213 234
M  V30 255 1 216 235
M  V30 256 1 217 236
M  V30 257 1 219 237
M  V30 258 1 220 238
M  V30 259 1 221 239
M  V30 260 1 222 240
M  V30 261 2 241 242
M  V30 262 1 242 243
M  V30 263 2 243 244
M  V30 264 1 244 245
M  V30 265 2 245 246
M  V30 266 1 246 247
M  V30 267 1 247 248
M  V30 268 2 248 249
M  V30 269 1 249 250
M  V30 270 2 250 251
M  V30 271 1 251 252
M  V30 272 2 252 253
M  V30 273 2 247 254
M  V30 274 1 254 255
M  V30 275 2 255 256
M  V30 276 1 256 257
M  V30 277 2 257 258
M  V30 278 1 258 259
M  V30 279 2 259 260
M  V30 280 1 254 261
M  V30 281 2 261 262
M  V30 282 1 262 263
M  V30 283 2 263 264
M  V30 284 1 264 265
M  V30 285 2 265 266
M  V30 286 1 266 267
M  V30 287 2 267 268
M  V30 288 1 244 269
M  V30 289 2 269 270
M  V30 290 1 270 241
M  V30 291 1 262 245
M  V30 292 1 268 263
M  V30 293 1 253 248
M  V30 294 1 260 255
M  V30 295 1 242 271
M  V30 296 1 243 272
M  V30 297 1 246 273
M  V30 298 1 249 274
M  V30 299 1 250 275
M  V30 300 1 252 276
M  V30 301 1 253 277
M  V30 302 1 256 278
M  V30 303 1 257 279
M  V30 304 1 259 280
M  V30 305 1 260 281
M  V30 306 1 261 282
M  V30 307 1 264 283
M  V30 308 1 265 284
M  V30 309 1 267 285
M  V30 310 1 268 286
M  V30 311 1 269 287
M  V30 312 1 270 288
M  V30 313 1 290 300
M  V30 314 2 290 297
M  V30 315 1 291 290
M  V30 316 2 292 291
M  V30 317 1 292 294
M  V30 318 1 293 291
M  V30 319 2 294 296
M  V30 320 1 295 292
M  V30 321 1 296 297
M  V30 322 1 296 298
M  V30 323 1 297 299
M  V30 324 2 301 295
M  V30 325 1 302 295
M  V30 326 1 303 313
M  V30 327 2 303 310
M  V30 328 1 304 303
M  V30 329 2 305 304
M  V30 330 1 305 307
M  V30 331 1 306 304
M  V30 332 2 307 309
M  V30 333 1 308 305
M  V30 334 1 309 310
M  V30 335 1 309 311
M  V30 336 1 310 312
M  V30 337 2 314 308
M  V30 338 1 315 308
M  V30 339 1 316 326
M  V30 340 2 316 323
M  V30 341 1 317 316
M  V30 342 2 318 317
M  V30 343 1 318 320
M  V30 344 1 319 317
M  V30 345 2 320 322
M  V30 346 1 321 318
M  V30 347 1 322 323
M  V30 348 1 322 324
M  V30 349 1 323 325
M  V30 350 2 327 321
M  V30 351 1 328 321
M  V30 352 9 301 289
M  V30 353 9 294 289
M  V30 354 9 314 289
M  V30 355 9 307 289
M  V30 356 9 327 289
M  V30 357 9 320 289
M  V30 358 1 330 340
M  V30 359 2 330 337
M  V30 360 1 331 330
M  V30 361 2 332 331
M  V30 362 1 332 334
M  V30 363 1 333 331
M  V30 364 2 334 336
M  V30 365 1 335 332
M  V30 366 1 336 337
M  V30 367 1 336 338
M  V30 368 1 337 339
M  V30 369 2 341 335
M  V30 370 1 342 335
M  V30 371 1 343 353
M  V30 372 2 343 350
M  V30 373 1 344 343
M  V30 374 2 345 344
M  V30 375 1 345 347
M  V30 376 1 346 344
M  V30 377 2 347 349
M  V30 378 1 348 345
M  V30 379 1 349 350
M  V30 380 1 349 351
M  V30 381 1 350 352
M  V30 382 2 354 348
M  V30 383 1 355 348
M  V30 384 1 356 366
M  V30 385 2 356 363
M  V30 386 1 357 356
M  V30 387 2 358 357
M  V30 388 1 358 360
M  V30 389 1 359 357
M  V30 390 2 360 362
M  V30 391 1 361 358
M  V30 392 1 362 363
M  V30 393 1 362 364
M  V30 394 1 363 365
M  V30 395 2 367 361
M  V30 396 1 368 361
M  V30 397 9 341 329
M  V30 398 9 334 329
M  V30 399 9 354 329
M  V30 400 9 347 329
M  V30 401 9 367 329
M  V30 402 9 360 329
M  V30 403 1 370 380
M  V30 404 2 370 377
M  V30 405 1 371 370
M  V30 406 2 372 371
M  V30 407 1 372 374
M  V30 408 1 373 371
M  V30 409 2 374 376
M  V30 410 1 375 372
M  V30 411 1 376 377
M  V30 412 1 376 378
M  V30 413 1 377 379
M  V30 414 2 381 375
M  V30 415 1 382 375
M  V30 416 1 383 393
M  V30 417 2 383 390
M  V30 418 1 384 383
M  V30 419 2 385 384
M  V30 420 1 385 387
M  V30 421 1 386 384
M  V30 422 2 387 389
M  V30 423 1 388 385
M  V30 424 1 389 390
M  V30 425 1 389 391
M  V30 426 1 390 392
M  V30 427 2 394 388
M  V30 428 1 395 388
M  V30 429 1 396 406
M  V30 430 2 396 403
M  V30 431 1 397 396
M  V30 432 2 398 397
M  V30 433 1 398 400
M  V30 434 1 399 397
M  V30 435 2 400 402
M  V30 436 1 401 398
M  V30 437 1 402 403
M  V30 438 1 402 404
M  V30 439 1 403 405
M  V30 440 2 407 401
M  V30 441 1 408 401
M  V30 442 9 381 369
M  V30 443 9 374 369
M  V30 444 9 394 369
M  V30 445 9 387 369
M  V30 446 9 407 369
M  V30 447 9 400 369
M  V30 448 1 410 420
M  V30 449 2 410 417
M  V30 450 1 411 410
M  V30 451 2 412 411
M  V30 452 1 412 414
M  V30 453 1 413 411
M  V30 454 2 414 416
M  V30 455 1 415 412
M  V30 456 1 416 417
M  V30 457 1 416 418
M  V30 458 1 417 419
M  V30 459 2 421 415
M  V30 460 1 422 415
M  V30 461 1 423 433
M  V30 462 2 423 430
M  V30 463 1 424 423
M  V30 464 2 425 424
M  V30 465 1 425 427
M  V30 466 1 426 424
M  V30 467 2 427 429
M  V30 468 1 428 425
M  V30 469 1 429 430
M  V30 470 1 429 431
M  V30 471 1 430 432
M  V30 472 2 434 428
M  V30 473 1 435 428
M  V30 474 1 436 446
M  V30 475 2 436 443
M  V30 476 1 437 436
M  V30 477 2 438 437
M  V30 478 1 438 440
M  V30 479 1 439 437
M  V30 480 2 440 442
M  V30 481 1 441 438
M  V30 482 1 442 443
M  V30 483 1 442 444
M  V30 484 1 443 445
M  V30 485 2 447 441
M  V30 486 1 448 441
M  V30 487 9 421 409
M  V30 488 9 414 409
M  V30 489 9 434 409
M  V30 490 9 427 409
M  V30 491 9 447 409
M  V30 492 9 440 409
M  V30 493 1 450 460
M  V30 494 2 450 457
M  V30 495 1 451 450
M  V30 496 2 452 451
M  V30 497 1 452 454
M  V30 498 1 453 451
M  V30 499 2 454 456
M  V30 500 1 455 452
M  V30 501 1 456 457
M  V30 502 1 456 458
M  V30 503 1 457 459
M  V30 504 2 461 455
M  V30 505 1 462 455
M  V30 506 1 463 473
M  V30 507 2 463 470
M  V30 508 1 464 463
M  V30 509 2 465 464
M  V30 510 1 465 467
M  V30 511 1 466 464
M  V30 512 2 467 469
M  V30 513 1 468 465
M  V30 514 1 469 470
M  V30 515 1 469 471
M  V30 516 1 470 472
M  V30 517 2 474 468
M  V30 518 1 475 468
M  V30 519 1 476 486
M  V30 520 2 476 483
M  V30 521 1 477 476
M  V30 522 2 478 477
M  V30 523 1 478 480
M  V30 524 1 479 477
M  V30 525 2 480 482
M  V30 526 1 481 478
M  V30 527 1 482 483
M  V30 528 1 482 484
M  V30 529 1 483 485
M  V30 530 2 487 481
M  V30 531 1 488 481
M  V30 532 9 461 449
M  V30 533 9 454 449
M  V30 534 9 474 449
M  V30 535 9 467 449
M  V30 536 9 487 449
M  V30 537 9 480 449
M  V30 538 1 490 500
M  V30 539 2 490 497
M  V30 540 1 491 490
M  V30 541 2 492 491
M  V30 542 1 492 494
M  V30 543 1 493 491
M  V30 544 2 494 496
M  V30 545 1 495 492
M  V30 546 1 496 497
M  V30 547 1 496 498
M  V30 548 1 497 499
M  V30 549 2 501 495
M  V30 550 1 502 495
M  V30 551 1 503 513
M  V30 552 2 503 510
M  V30 553 1 504 503
M  V30 554 2 505 504
M  V30 555 1 505 507
M  V30 556 1 506 504
M  V30 557 2 507 509
M  V30 558 1 508 505
M  V30 559 1 509 510
M  V30 560 1 509 511
M  V30 561 1 510 512
M  V30 562 2 514 508
M  V30 563 1 515 508
M  V30 564 1 516 526
M  V30 565 2 516 523
M  V30 566 1 517 516
M  V30 567 2 518 517
M  V30 568 1 518 520
M  V30 569 1 519 517
M  V30 570 2 520 522
M  V30 571 1 521 518
M  V30 572 1 522 523
M  V30 573 1 522 524
M  V30 574 1 523 525
M  V30 575 2 527 521
M  V30 576 1 528 521
M  V30 577 9 501 489
M  V30 578 9 494 489
M  V30 579 9 514 489
M  V30 580 9 507 489
M  V30 581 9 527 489
M  V30 582 9 520 489
M  V30 583 1 530 540
M  V30 584 2 530 537
M  V30 585 1 531 530
M  V30 586 2 532 531
M  V30 587 1 532 534
M  V30 588 1 533 531
M  V30 589 2 534 536
M  V30 590 1 535 532
M  V30 591 1 536 537
M  V30 592 1 536 538
M  V30 593 1 537 539
M  V30 594 2 541 535
M  V30 595 1 542 535
M  V30 596 1 543 553
M  V30 597 2 543 550
M  V30 598 1 544 543
M  V30 599 2 545 544
M  V30 600 1 545 547
M  V30 601 1 546 544
M  V30 602 2 547 549
M  V30 603 1 548 545
M  V30 604 1 549 550
M  V30 605 1 549 551
M  V30 606 1 550 552
M  V30 607 2 554 548
M  V30 608 1 555 548
M  V30 609 1 556 566
M  V30 610 2 556 563
M  V30 611 1 557 556
M  V30 612 2 558 557
M  V30 613 1 558 560
M  V30 614 1 559 557
M  V30 615 2 560 562
M  V30 616 1 561 558
M  V30 617 1 562 563
M  V30 618 1 562 564
M  V30 619 1 563 565
M  V30 620 2 567 561
M  V30 621 1 568 561
M  V30 622 9 541 529
M  V30 623 9 534 529
M  V30 624 9 567 529
M  V30 625 9 560 529
M  V30 626 9 554 529
M  V30 627 9 547 529
M  V30 628 1 570 580
M  V30 629 2 570 577
M  V30 630 1 571 570
M  V30 631 2 572 571
M  V30 632 1 572 574
M  V30 633 1 573 571
M  V30 634 2 574 576
M  V30 635 1 575 572
M  V30 636 1 576 577
M  V30 637 1 576 578
M  V30 638 1 577 579
M  V30 639 2 581 575
M  V30 640 1 582 575
M  V30 641 1 583 593
M  V30 642 2 583 590
M  V30 643 1 584 583
M  V30 644 2 585 584
M  V30 645 1 585 587
M  V30 646 1 586 584
M  V30 647 2 587 589
M  V30 648 1 588 585
M  V30 649 1 589 590
M  V30 650 1 589 591
M  V30 651 1 590 592
M  V30 652 2 594 588
M  V30 653 1 595 588
M  V30 654 1 596 606
M  V30 655 2 596 603
M  V30 656 1 597 596
M  V30 657 2 598 597
M  V30 658 1 598 600
M  V30 659 1 599 597
M  V30 660 2 600 602
M  V30 661 1 601 598
M  V30 662 1 602 603
M  V30 663 1 602 604
M  V30 664 1 603 605
M  V30 665 2 607 601
M  V30 666 1 608 601
M  V30 667 9 581 569
M  V30 668 9 574 569
M  V30 669 9 607 569
M  V30 670 9 600 569
M  V30 671 9 594 569
M  V30 672 9 587 569
M  V30 673 1 11 301
M  V30 674 1 18 541
M  V30 675 1 26 341
M  V30 676 1 1 381
M  V30 677 1 66 421
M  V30 678 1 74 461
M  V30 679 1 49 567
M  V30 680 1 59 327
M  V30 681 1 107 434
M  V30 682 1 114 314
M  V30 683 1 122 407
M  V30 684 1 97 581
M  V30 685 1 155 394
M  V30 686 1 162 367
M  V30 687 1 170 501
M  V30 688 1 145 607
M  V30 689 1 210 474
M  V30 690 1 218 447
M  V30 691 1 193 594
M  V30 692 1 203 527
M  V30 693 1 258 554
M  V30 694 1 266 487
M  V30 695 1 241 514
M  V30 696 1 251 354
M  V30 END BOND
M  V30 END CTAB
M  END

$$$$
