
     RDKit          3D

  0  0  0  0  0  0  0  0  0  0999 V3000
M  V30 BEGIN CTAB
M  V30 COUNTS 608 696 0 0 0
M  V30 BEGIN ATOM
M  V30 1 C -4.5830 3.0285 6.9717 0
M  V30 2 C -3.4616 3.3605 6.2039 0
M  V30 3 C -2.3564 2.5435 6.1675 0
M  V30 4 C -2.3007 1.3855 6.9482 0
M  V30 5 C -1.0856 0.5638 6.9015 0
M  V30 6 C 0.1366 1.2331 6.8751 0
M  V30 7 C 1.3530 0.5701 6.8095 0
M  V30 8 C 2.5737 1.3734 6.6180 0
M  V30 9 C 2.8652 2.4176 7.4943 0
M  V30 10 C 3.9795 3.2073 7.2981 0
M  V30 11 C 4.8268 2.9689 6.2164 0
M  V30 12 C 4.5310 1.9360 5.3250 0
M  V30 13 C 3.4102 1.1532 5.5228 0
M  V30 14 C 1.3595 -0.8320 6.8527 0
M  V30 15 C 2.5881 -1.6309 6.8854 0
M  V30 16 C 2.6238 -2.8528 6.2085 0
M  V30 17 C 3.7423 -3.6481 6.2691 0
M  V30 18 C 4.8967 -3.2437 6.9495 0
M  V30 19 C 4.8498 -2.0318 7.6558 0
M  V30 20 C 3.7115 -1.2522 7.6275 0
M  V30 21 C 0.1386 -1.5005 6.8878 0
M  V30 22 C -1.0846 -0.8405 6.8763 0
M  V30 23 C -2.2987 -1.6657 6.7567 0
M  V30 24 C -2.4074 -2.8472 7.4951 0
M  V30 25 C -3.4849 -3.6915 7.3273 0
M  V30 26 C -4.5099 -3.3429 6.4484 0
M  V30 27 C -4.4148 -2.1650 5.7059 0
M  V30 28 C -3.3062 -1.3516 5.8421 0
M  V30 29 C -3.3779 1.1007 7.7915 0
M  V30 30 C -4.5028 1.9005 7.8030 0
M  V30 31 H -3.4760 4.2658 5.6213 0
M  V30 32 H -1.5393 2.7901 5.5096 0
M  V30 33 H 0.1435 2.3106 6.9036 0
M  V30 34 H 2.2373 2.5922 8.3544 0
M  V30 35 H 4.2351 3.9694 8.0138 0
M  V30 36 H 5.1607 1.7910 4.4621 0
M  V30 37 H 3.1662 0.3712 4.8227 0
M  V30 38 H 1.7805 -3.1731 5.6189 0
M  V30 39 H 3.7427 -4.6096 5.7849 0
M  V30 40 H 5.6828 -1.7017 8.2550 0
M  V30 41 H 3.6900 -0.3451 8.2101 0
M  V30 42 H 0.1351 -2.5775 6.9174 0
M  V30 43 H -1.6560 -3.1001 8.2266 0
M  V30 44 H -3.5722 -4.5953 7.9085 0
M  V30 45 H -5.1876 -1.9323 4.9911 0
M  V30 46 H -3.2105 -0.4709 5.2291 0
M  V30 47 H -3.3295 0.2545 8.4586 0
M  V30 48 H -5.2979 1.6643 8.4921 0
M  V30 49 C 6.7805 -4.6929 3.1953 0
M  V30 50 C 6.0699 -3.5378 3.5350 0
M  V30 51 C 6.1699 -2.4005 2.7654 0
M  V30 52 C 7.0138 -2.3652 1.6534 0
M  V30 53 C 7.0901 -1.1482 0.8372 0
M  V30 54 C 7.1532 0.0885 1.4725 0
M  V30 55 C 7.2203 1.2814 0.7650 0
M  V30 56 C 7.1295 2.5438 1.5388 0
M  V30 57 C 8.2632 3.2628 1.9026 0
M  V30 58 C 8.1502 4.4018 2.6773 0
M  V30 59 C 6.8992 4.8031 3.1468 0
M  V30 60 C 5.7602 4.0717 2.8127 0
M  V30 61 C 5.8783 2.9659 1.9933 0
M  V30 62 C 7.2603 1.2366 -0.6315 0
M  V30 63 C 7.2499 2.4310 -1.4902 0
M  V30 64 C 6.2609 2.5092 -2.4726 0
M  V30 65 C 6.2075 3.5830 -3.3297 0
M  V30 66 C 7.1188 4.6375 -3.2182 0
M  V30 67 C 8.1440 4.5333 -2.2693 0
M  V30 68 C 8.2035 3.4448 -1.4208 0
M  V30 69 C 7.1971 -0.0007 -1.2678 0
M  V30 70 C 7.0886 -1.1912 -0.5644 0
M  V30 71 C 6.8727 -2.4329 -1.3288 0
M  V30 72 C 7.7223 -2.7549 -2.3865 0
M  V30 73 C 7.4858 -3.8684 -3.1664 0
M  V30 74 C 6.3907 -4.6912 -2.9041 0
M  V30 75 C 5.5434 -4.3812 -1.8380 0
M  V30 76 C 5.7768 -3.2577 -1.0693 0
M  V30 77 C 7.7914 -3.4887 1.3659 0
M  V30 78 C 7.6767 -4.6384 2.1189 0
M  V30 79 H 5.4174 -3.5470 4.3918 0
M  V30 80 H 5.5677 -1.5408 3.0087 0
M  V30 81 H 7.1649 0.1245 2.5498 0
M  V30 82 H 9.2434 2.9276 1.5997 0
M  V30 83 H 9.0335 4.9474 2.9747 0
M  V30 84 H 4.8035 4.4044 3.1845 0
M  V30 85 H 4.9975 2.4131 1.7070 0
M  V30 86 H 5.5202 1.7295 -2.5476 0
M  V30 87 H 5.4412 3.6212 -4.0832 0
M  V30 88 H 8.9253 5.2762 -2.2228 0
M  V30 89 H 9.0192 3.3755 -0.7199 0
M  V30 90 H 7.2120 -0.0302 -2.3454 0
M  V30 91 H 8.5905 -2.1457 -2.5852 0
M  V30 92 H 8.1784 -4.1398 -3.9437 0
M  V30 93 H 4.6805 -5.0004 -1.6549 0
M  V30 94 H 5.0998 -3.0029 -0.2707 0
M  V30 95 H 8.5063 -3.4575 0.5592 0
M  V30 96 H 8.3226 -5.4754 1.9050 0
M  V30 97 C -3.0114 6.8042 4.7604 0
M  V30 98 C -3.2235 5.9490 3.6747 0
M  V30 99 C -2.3854 5.9679 2.5844 0
M  V30 100 C -1.3171 6.8657 2.5231 0
M  V30 101 C -0.4769 6.8678 1.3178 0
M  V30 102 C -1.1326 6.8547 0.0899 0
M  V30 103 C -0.4502 6.8257 -1.1178 0
M  V30 104 C -1.2319 6.6532 -2.3541 0
M  V30 105 C -2.3180 7.4869 -2.6176 0
M  V30 106 C -3.1064 7.2837 -3.7319 0
M  V30 107 C -2.8226 6.2405 -4.6127 0
M  V30 108 C -1.7285 5.4096 -4.3602 0
M  V30 109 C -0.9526 5.6079 -3.2357 0
M  V30 110 C 0.9521 6.8711 -1.1007 0
M  V30 111 C 1.7548 6.8938 -2.3280 0
M  V30 112 C 2.9306 6.1428 -2.3933 0
M  V30 113 C 3.6914 6.1388 -3.5389 0
M  V30 114 C 3.2887 6.8368 -4.6828 0
M  V30 115 C 2.1502 7.6522 -4.5909 0
M  V30 116 C 1.4051 7.6791 -3.4305 0
M  V30 117 C 1.6065 6.8901 0.1270 0
M  V30 118 C 0.9258 6.8614 1.3393 0
M  V30 119 C 1.7165 6.7408 2.5749 0
M  V30 120 C 2.8845 7.4923 2.7254 0
M  V30 121 C 3.6935 7.3287 3.8300 0
M  V30 122 C 3.3229 6.4377 4.8366 0
M  V30 123 C 2.1543 5.6877 4.7032 0
M  V30 124 C 1.3755 5.8224 3.5699 0
M  V30 125 C -1.1399 7.7676 3.5735 0
M  V30 126 C -1.9724 7.7429 4.6747 0
M  V30 127 H -4.0434 5.2531 3.7019 0
M  V30 128 H -2.5387 5.2643 1.7826 0
M  V30 129 H -2.2105 6.8585 0.0754 0
M  V30 130 H -2.5321 8.3170 -1.9623 0
M  V30 131 H -3.9087 7.9640 -3.9583 0
M  V30 132 H -1.5305 4.5852 -5.0254 0
M  V30 133 H -0.1325 4.9432 -3.0204 0
M  V30 134 H 3.2357 5.5405 -1.5532 0
M  V30 135 H 4.6096 5.5783 -3.5688 0
M  V30 136 H 1.8622 8.2969 -5.4056 0
M  V30 137 H 0.5497 8.3335 -3.3746 0
M  V30 138 H 2.6838 6.9175 0.1429 0
M  V30 139 H 3.1545 8.2284 1.9846 0
M  V30 140 H 4.5859 7.9211 3.9502 0
M  V30 141 H 1.9024 4.9689 5.4663 0
M  V30 142 H 0.5038 5.2015 3.4454 0
M  V30 143 H -0.3590 8.5099 3.5198 0
M  V30 144 H -1.8397 8.4873 5.4439 0
M  V30 145 C -5.9689 -4.9860 -3.0141 0
M  V30 146 C -4.8872 -4.1107 -3.1077 0
M  V30 147 C -4.8615 -2.9600 -2.3450 0
M  V30 148 C -5.9143 -2.6607 -1.4812 0
M  V30 149 C -5.9427 -1.4026 -0.7120 0
M  V30 150 C -5.9419 -0.1869 -1.3831 0
M  V30 151 C -6.0745 1.0254 -0.7120 0
M  V30 152 C -6.0685 2.2755 -1.4915 0
M  V30 153 C -6.9042 2.3854 -2.6042 0
M  V30 154 C -6.9205 3.5369 -3.3626 0
M  V30 155 C -6.1090 4.6139 -3.0072 0
M  V30 156 C -5.2681 4.5146 -1.8978 0
M  V30 157 C -5.2391 3.3469 -1.1591 0
M  V30 158 C -6.2085 1.0159 0.6843 0
M  V30 159 C -6.3608 2.2276 1.5014 0
M  V30 160 C -5.6214 2.3247 2.6828 0
M  V30 161 C -5.7412 3.4259 3.4975 0
M  V30 162 C -6.5604 4.5018 3.1405 0
M  V30 163 C -7.3541 4.3757 1.9904 0
M  V30 164 C -7.2566 3.2535 1.1921 0
M  V30 165 C -6.1931 -0.2045 1.3534 0
M  V30 166 C -6.0579 -1.4119 0.6844 0
M  V30 167 C -5.9895 -2.6558 1.4659 0
M  V30 168 C -6.9172 -2.8887 2.4816 0
M  V30 169 C -6.8346 -4.0219 3.2629 0
M  V30 170 C -5.8253 -4.9569 3.0336 0
M  V30 171 C -4.9015 -4.7373 2.0110 0
M  V30 172 C -4.9760 -3.5898 1.2477 0
M  V30 173 C -6.9857 -3.5482 -1.3783 0
M  V30 174 C -7.0160 -4.7023 -2.1328 0
M  V30 175 H -4.0664 -4.3717 -3.7551 0
M  V30 176 H -4.0161 -2.2938 -2.4077 0
M  V30 177 H -5.8433 -0.1786 -2.4566 0
M  V30 178 H -7.5684 1.5755 -2.8611 0
M  V30 179 H -7.5918 3.6372 -4.1992 0
M  V30 180 H -4.6130 5.3380 -1.6624 0
M  V30 181 H -4.5621 3.2562 -0.3261 0
M  V30 182 H -4.9303 1.5420 2.9488 0
M  V30 183 H -5.1821 3.4734 4.4156 0
M  V30 184 H -8.0835 5.1300 1.7412 0
M  V30 185 H -7.8976 3.1671 0.3291 0
M  V30 186 H -6.3063 -0.2157 2.4251 0
M  V30 187 H -7.7266 -2.1941 2.6444 0
M  V30 188 H -7.5827 -4.2249 4.0105 0
M  V30 189 H -4.1015 -5.4438 1.8619 0
M  V30 190 H -4.2341 -3.4064 0.4883 0
M  V30 191 H -7.8126 -3.3216 -0.7240 0
M  V30 192 H -7.8758 -5.3539 -2.0938 0
M  V30 193 C -4.7820 -3.2777 -6.2374 0
M  V30 194 C -3.7079 -3.6546 -7.0458 0
M  V30 195 C -2.5747 -2.8693 -7.1004 0
M  V30 196 C -2.4644 -1.7159 -6.3188 0
M  V30 197 C -1.2267 -0.9253 -6.3446 0
M  V30 198 C 0.0062 -1.5726 -6.3496 0
M  V30 199 C 1.2095 -0.8770 -6.3635 0
M  V30 200 C 2.4697 -1.6381 -6.3210 0
M  V30 201 C 2.6461 -2.7151 -7.1906 0
M  V30 202 C 3.8010 -3.4670 -7.1553 0
M  V30 203 C 4.8155 -3.1396 -6.2571 0
M  V30 204 C 4.6538 -2.0617 -5.3872 0
M  V30 205 C 3.4811 -1.3304 -5.4105 0
M  V30 206 C 1.1837 0.5254 -6.3862 0
M  V30 207 C 2.3910 1.3564 -6.4768 0
M  V30 208 C 2.4909 2.5039 -5.6863 0
M  V30 209 C 3.5940 3.3228 -5.7703 0
M  V30 210 C 4.6641 2.9980 -6.6104 0
M  V30 211 C 4.5363 1.8831 -7.4516 0
M  V30 212 C 3.4145 1.0828 -7.3870 0
M  V30 213 C -0.0480 1.1725 -6.3494 0
M  V30 214 C -1.2472 0.4762 -6.3300 0
M  V30 215 C -2.4871 1.2792 -6.3302 0
M  V30 216 C -3.3475 1.2771 -7.4257 0
M  V30 217 C -4.4519 2.1053 -7.4473 0
M  V30 218 C -4.7135 2.9512 -6.3657 0
M  V30 219 C -3.8557 2.9537 -5.2638 0
M  V30 220 C -2.7549 2.1229 -5.2492 0
M  V30 221 C -3.5364 -1.3564 -5.4984 0
M  V30 222 C -4.6919 -2.1080 -5.4769 0
M  V30 223 H -3.7967 -4.5398 -7.6554 0
M  V30 224 H -1.7740 -3.1488 -7.7666 0
M  V30 225 H 0.0339 -2.6493 -6.2996 0
M  V30 226 H 1.8873 -2.9507 -7.9199 0
M  V30 227 H 3.9515 -4.2761 -7.8505 0
M  V30 228 H 5.4308 -1.8449 -4.6717 0
M  V30 229 H 3.3405 -0.5235 -4.7103 0
M  V30 230 H 1.7098 2.7396 -4.9827 0
M  V30 231 H 3.6438 4.2132 -5.1667 0
M  V30 232 H 5.2887 1.6724 -8.1952 0
M  V30 233 H 3.3246 0.2491 -8.0650 0
M  V30 234 H -0.0770 2.2488 -6.3968 0
M  V30 235 H -3.1395 0.6457 -8.2750 0
M  V30 236 H -5.0766 2.1434 -8.3264 0
M  V30 237 H -4.0889 3.5898 -4.4239 0
M  V30 238 H -2.1022 2.1079 -4.3904 0
M  V30 239 H -3.4534 -0.4958 -4.8564 0
M  V30 240 H -5.5057 -1.8378 -4.8241 0
M  V30 241 C -3.0309 -6.9176 -4.8890 0
M  V30 242 C -2.2560 -5.8155 -4.5361 0
M  V30 243 C -1.4682 -5.8676 -3.4033 0
M  V30 244 C -1.4798 -6.9969 -2.5866 0
M  V30 245 C -0.6895 -7.0084 -1.3410 0
M  V30 246 C -1.3265 -7.1515 -0.1135 0
M  V30 247 C -0.6212 -7.1007 1.0819 0
M  V30 248 C -1.3657 -7.0788 2.3655 0
M  V30 249 C -1.8045 -8.2424 2.9886 0
M  V30 250 C -2.5132 -8.1767 4.1746 0
M  V30 251 C -2.8574 -6.9360 4.7105 0
M  V30 252 C -2.4486 -5.7638 4.0771 0
M  V30 253 C -1.6788 -5.8419 2.9327 0
M  V30 254 C 0.7680 -6.9376 1.0472 0
M  V30 255 C 1.6031 -6.9456 2.2576 0
M  V30 256 C 2.5385 -5.9290 2.4527 0
M  V30 257 C 3.3628 -5.9360 3.5557 0
M  V30 258 C 3.2612 -6.9468 4.5165 0
M  V30 259 C 2.3645 -7.9983 4.2913 0
M  V30 260 C 1.5495 -7.9924 3.1779 0
M  V30 261 C 1.3993 -6.7627 -0.1795 0
M  V30 262 C 0.6912 -6.7883 -1.3726 0
M  V30 263 C 1.4487 -6.6448 -2.6311 0
M  V30 264 C 1.4723 -7.6849 -3.5580 0
M  V30 265 C 2.2836 -7.6107 -4.6713 0
M  V30 266 C 3.0924 -6.4889 -4.8744 0
M  V30 267 C 3.0493 -5.4298 -3.9659 0
M  V30 268 C 2.2288 -5.5093 -2.8589 0
M  V30 269 C -2.2551 -8.0936 -2.9502 0
M  V30 270 C -3.0033 -8.0710 -4.1130 0
M  V30 271 H -2.2646 -4.9468 -5.1753 0
M  V30 272 H -0.8626 -5.0183 -3.1326 0
M  V30 273 H -2.3972 -7.2778 -0.0932 0
M  V30 274 H -1.5916 -9.2079 2.5550 0
M  V30 275 H -2.8521 -9.0805 4.6588 0
M  V30 276 H -2.7237 -4.8157 4.5113 0
M  V30 277 H -1.3338 -4.9382 2.4562 0
M  V30 278 H 2.6003 -5.1164 1.7472 0
M  V30 279 H 4.0704 -5.1375 3.6930 0
M  V30 280 H 2.3406 -8.8449 4.9604 0
M  V30 281 H 0.8846 -8.8245 3.0117 0
M  V30 282 H 2.4705 -6.6475 -0.2059 0
M  V30 283 H 0.8815 -8.5714 -3.3902 0
M  V30 284 H 2.3478 -8.4503 -5.3466 0
M  V30 285 H 3.6465 -4.5527 -4.1639 0
M  V30 286 H 2.1791 -4.6850 -2.1650 0
M  V30 287 H -2.2578 -8.9834 -2.3393 0
M  V30 288 H -3.5943 -8.9256 -4.4061 0
M  V30 289 Zn 6.1885 5.8765 6.0399 0 CHG=2
M  V30 290 C 10.7259 4.1052 5.9620 0
M  V30 291 C 9.5870 3.3265 5.8221 0
M  V30 292 C 8.3402 3.9297 5.9644 0
M  V30 293 H 9.6653 2.2725 5.6086 0
M  V30 294 N 8.2069 5.2433 6.2144 0
M  V30 295 C 7.1080 3.1729 5.9293 0
M  V30 296 C 9.2971 5.9768 6.3666 0
M  V30 297 C 10.5787 5.4537 6.2519 0
M  V30 298 H 9.1509 7.0217 6.5929 0
M  V30 299 H 11.4362 6.0926 6.3897 0
M  V30 300 H 11.7098 3.6748 5.8582 0
M  V30 301 N 5.9833 3.7581 6.1024 0
M  V30 302 H 7.1848 2.0923 5.8317 0
M  V30 303 C 4.9106 6.6651 10.6493 0
M  V30 304 C 4.0240 6.7111 9.5823 0
M  V30 305 C 4.5011 6.4365 8.3033 0
M  V30 306 H 2.9869 6.9600 9.7418 0
M  V30 307 N 5.7889 6.1209 8.0766 0
M  V30 308 C 3.6489 6.4883 7.1301 0
M  V30 309 C 6.6282 6.0715 9.0965 0
M  V30 310 C 6.2360 6.3385 10.4034 0
M  V30 311 H 7.6494 5.8075 8.8693 0
M  V30 312 H 6.9536 6.2898 11.2064 0
M  V30 313 H 4.5772 6.8777 11.6532 0
M  V30 314 N 4.1503 6.3351 5.9644 0
M  V30 315 H 2.5920 6.6952 7.2817 0
M  V30 316 C 7.8095 10.4016 5.1656 0
M  V30 317 C 7.8854 9.3609 4.2518 0
M  V30 318 C 7.3453 8.1243 4.5969 0
M  V30 319 H 8.3549 9.5069 3.2919 0
M  V30 320 N 6.7542 7.9077 5.7834 0
M  V30 321 C 7.3875 6.9914 3.6990 0
M  V30 322 C 6.6770 8.9069 6.6462 0
M  V30 323 C 7.1899 10.1716 6.3849 0
M  V30 324 H 6.1931 8.7003 7.5880 0
M  V30 325 H 7.1095 10.9539 7.1223 0
M  V30 326 H 8.2239 11.3707 4.9348 0
M  V30 327 N 6.7731 5.9099 3.9951 0
M  V30 328 H 7.9442 7.1034 2.7727 0
M  V30 329 Zn -5.6941 -6.2453 5.9463 0 CHG=2
M  V30 330 C -10.3042 -4.9657 6.7700 0
M  V30 331 C -9.2400 -4.0750 6.7752 0
M  V30 332 C -7.9618 -4.5570 6.5037 0
M  V30 333 H -9.4007 -3.0307 6.9913 0
M  V30 334 N -7.7323 -5.8532 6.2294 0
M  V30 335 C -6.7931 -3.6980 6.5213 0
M  V30 336 C -8.7502 -6.6962 6.2185 0
M  V30 337 C -10.0560 -6.3003 6.4854 0
M  V30 338 H -8.5240 -7.7257 5.9880 0
M  V30 339 H -10.8561 -7.0226 6.4695 0
M  V30 340 H -11.3072 -4.6293 6.9821 0
M  V30 341 N -5.6235 -4.1915 6.3657 0
M  V30 342 H -6.9506 -2.6380 6.7084 0
M  V30 343 C -4.6197 -7.9514 10.3818 0
M  V30 344 C -3.7696 -8.0467 9.2894 0
M  V30 345 C -4.1558 -7.4620 8.0861 0
M  V30 346 H -2.8275 -8.5651 9.3716 0
M  V30 347 N -5.3227 -6.8104 7.9508 0
M  V30 348 C -3.3222 -7.5082 6.9035 0
M  V30 349 C -6.1240 -6.7133 8.9984 0
M  V30 350 C -5.8176 -7.2676 10.2354 0
M  V30 351 H -7.0496 -6.1779 8.8540 0
M  V30 352 H -6.5046 -7.1695 11.0602 0
M  V30 353 H -4.3561 -8.3998 11.3271 0
M  V30 354 N -3.6499 -6.8428 5.8635 0
M  V30 355 H -2.4148 -8.1047 6.9462 0
M  V30 356 C -5.9052 -10.8393 4.2891 0
M  V30 357 C -5.7315 -9.7277 3.4792 0
M  V30 358 C -5.7731 -8.4616 4.0578 0
M  V30 359 H -5.5697 -9.8405 2.4193 0
M  V30 360 N -5.9566 -8.2856 5.3768 0
M  V30 361 C -5.6876 -7.2511 3.2718 0
M  V30 362 C -6.1411 -9.3497 6.1413 0
M  V30 363 C -6.1260 -10.6465 5.6452 0
M  V30 364 H -6.3127 -9.1688 7.1912 0
M  V30 365 H -6.2857 -11.4807 6.3092 0
M  V30 366 H -5.8789 -11.8366 3.8782 0
M  V30 367 N -5.7976 -6.1070 3.8340 0
M  V30 368 H -5.6006 -7.3546 2.1930 0
M  V30 369 Zn 6.0703 -5.9896 -5.8480 0 CHG=2
M  V30 370 C 5.7032 -10.5336 -4.1816 0
M  V30 371 C 5.6633 -9.4081 -3.3723 0
M  V30 372 C 5.9009 -8.1611 -3.9446 0
M  V30 373 H 5.4527 -9.4976 -2.3186 0
M  V30 374 N 6.1462 -8.0139 -5.2577 0
M  V30 375 C 5.9706 -6.9512 -3.1539 0
M  V30 376 C 6.2058 -9.0927 -6.0202 0
M  V30 377 C 5.9936 -10.3748 -5.5284 0
M  V30 378 H 6.4333 -8.9387 -7.0640 0
M  V30 379 H 6.0581 -11.2236 -6.1902 0
M  V30 380 H 5.5233 -11.5169 -3.7758 0
M  V30 381 N 6.2014 -5.8237 -3.7134 0
M  V30 382 H 5.8948 -7.0525 -2.0737 0
M  V30 383 C 10.6423 -4.6442 -6.7346 0
M  V30 384 C 9.5675 -3.7652 -6.7326 0
M  V30 385 C 8.3025 -4.2561 -6.4221 0
M  V30 386 H 9.7112 -2.7239 -6.9730 0
M  V30 387 N 8.0969 -5.5500 -6.1180 0
M  V30 388 C 7.1200 -3.4137 -6.4110 0
M  V30 389 C 9.1242 -6.3818 -6.1106 0
M  V30 390 C 10.4187 -5.9751 -6.4148 0
M  V30 391 H 8.9129 -7.4077 -5.8503 0
M  V30 392 H 11.2289 -6.6860 -6.4000 0
M  V30 393 H 11.6358 -4.3002 -6.9770 0
M  V30 394 N 5.9690 -3.9393 -6.2419 0
M  V30 395 H 7.2516 -2.3474 -6.5780 0
M  V30 396 C 5.1574 -7.3241 -10.4702 0
M  V30 397 C 4.2096 -7.3304 -9.4586 0
M  V30 398 C 4.5826 -6.9072 -8.1841 0
M  V30 399 H 3.2012 -7.6588 -9.6547 0
M  V30 400 N 5.8276 -6.4863 -7.9061 0
M  V30 401 C 3.6470 -6.8954 -7.0835 0
M  V30 402 C 6.7246 -6.4777 -8.8779 0
M  V30 403 C 6.4407 -6.8885 -10.1743 0
M  V30 404 H 7.7154 -6.1352 -8.6242 0
M  V30 405 H 7.2087 -6.8698 -10.9306 0
M  V30 406 H 4.9054 -7.6510 -11.4672 0
M  V30 407 N 3.9850 -6.4157 -5.9450 0
M  V30 408 H 2.6532 -7.2907 -7.2712 0
M  V30 409 Zn -5.7774 5.8970 -5.8682 0 CHG=2
M  V30 410 C -4.1737 5.7309 -10.4558 0
M  V30 411 C -3.3472 5.6728 -9.3438 0
M  V30 412 C -3.9070 5.8505 -8.0812 0
M  V30 413 H -2.2895 5.4946 -9.4554 0
M  V30 414 N -5.2237 6.0535 -7.9059 0
M  V30 415 C -3.0989 5.8998 -6.8826 0
M  V30 416 C -6.0027 6.1318 -8.9717 0
M  V30 417 C -5.5249 5.9805 -10.2675 0
M  V30 418 H -7.0495 6.3274 -8.7964 0
M  V30 419 H -6.2005 6.0589 -11.1041 0
M  V30 420 H -3.7774 5.5975 -11.4504 0
M  V30 421 N -3.6448 6.0780 -5.7391 0
M  V30 422 H -2.0193 5.8538 -7.0048 0
M  V30 423 C -6.7719 10.4300 -4.4767 0
M  V30 424 C -6.7350 9.3489 -3.6066 0
M  V30 425 C -6.3974 8.0958 -4.1104 0
M  V30 426 H -6.9694 9.4786 -2.5621 0
M  V30 427 N -6.0990 7.9080 -5.4083 0
M  V30 428 C -6.3475 6.9087 -3.2770 0
M  V30 429 C -6.1260 8.9414 -6.2320 0
M  V30 430 C -6.4592 10.2245 -5.8123 0
M  V30 431 H -5.8702 8.7451 -7.2618 0
M  V30 432 H -6.4717 11.0400 -6.5172 0
M  V30 433 H -7.0358 11.4145 -4.1227 0
M  V30 434 N -6.1446 5.7647 -3.8084 0
M  V30 435 H -6.5134 7.0299 -2.2092 0
M  V30 436 C -10.3230 4.9075 -7.3666 0
M  V30 437 C -9.2798 3.9948 -7.3959 0
M  V30 438 C -8.0386 4.3753 -6.8891 0
M  V30 439 H -9.4258 3.0092 -7.8089 0
M  V30 440 N -7.8220 5.5950 -6.3692 0
M  V30 441 C -6.9117 3.4719 -6.8795 0
M  V30 442 C -8.8253 6.4558 -6.3333 0
M  V30 443 C -10.0929 6.1614 -6.8199 0
M  V30 444 H -8.6218 7.4244 -5.9041 0
M  V30 445 H -10.8773 6.8995 -6.7747 0
M  V30 446 H -11.2944 4.6500 -7.7594 0
M  V30 447 N -5.8009 3.8258 -6.3482 0
M  V30 448 H -7.0599 2.4857 -7.3091 0
M  V30 449 Zn 6.0963 -6.1091 6.0026 0 CHG=2
M  V30 450 C 10.6571 -5.0525 7.3075 0
M  V30 451 C 9.5905 -4.1866 7.4881 0
M  V30 452 C 8.3231 -4.5761 7.0535 0
M  V30 453 H 9.7377 -3.2302 7.9646 0
M  V30 454 N 8.1114 -5.7609 6.4583 0
M  V30 455 C 7.1736 -3.7184 7.2276 0
M  V30 456 C 9.1347 -6.5798 6.2812 0
M  V30 457 C 10.4259 -6.2734 6.6895 0
M  V30 458 H 8.9236 -7.5213 5.7985 0
M  V30 459 H 11.2285 -6.9753 6.5308 0
M  V30 460 H 11.6483 -4.7853 7.6397 0
M  V30 461 N 6.0091 -4.0737 6.8204 0
M  V30 462 H 7.3653 -2.7644 7.7086 0
M  V30 463 C 4.5808 -7.7151 10.3442 0
M  V30 464 C 3.8100 -7.7807 9.1949 0
M  V30 465 C 4.3300 -7.2764 8.0027 0
M  V30 466 H 2.8262 -8.2217 9.2207 0
M  V30 467 N 5.5487 -6.7181 7.9394 0
M  V30 468 C 3.5782 -7.3372 6.7734 0
M  V30 469 C 6.2779 -6.6535 9.0413 0
M  V30 470 C 5.8417 -7.1407 10.2660 0
M  V30 471 H 7.2534 -6.2010 8.9541 0
M  V30 472 H 6.4763 -7.0736 11.1349 0
M  V30 473 H 4.2133 -8.1039 11.2813 0
M  V30 474 N 4.0371 -6.8511 5.6775 0
M  V30 475 H 2.5948 -7.7943 6.8313 0
M  V30 476 C 6.5735 -10.6260 4.2215 0
M  V30 477 C 6.6268 -9.4746 3.4524 0
M  V30 478 C 6.5761 -8.2358 4.0900 0
M  V30 479 H 6.7125 -9.5359 2.3793 0
M  V30 480 N 6.4550 -8.1253 5.4230 0
M  V30 481 C 6.6884 -6.9991 3.3554 0
M  V30 482 C 6.4212 -9.2276 6.1527 0
M  V30 483 C 6.4804 -10.5004 5.6004 0
M  V30 484 H 6.3520 -9.0997 7.2218 0
M  V30 485 H 6.4580 -11.3685 6.2394 0
M  V30 486 H 6.6143 -11.6024 3.7639 0
M  V30 487 N 6.5629 -5.8585 3.9334 0
M  V30 488 H 6.8906 -7.0819 2.2911 0
M  V30 489 Zn -5.9055 5.8858 6.0374 0 CHG=2
M  V30 490 C -10.4360 4.4905 7.2098 0
M  V30 491 C -9.3210 3.6822 7.3608 0
M  V30 492 C -8.0711 4.1772 6.9868 0
M  V30 493 H -9.4179 2.6895 7.7709 0
M  V30 494 N -7.9203 5.4071 6.4709 0
M  V30 495 C -6.8761 3.3842 7.1508 0
M  V30 496 C -8.9894 6.1719 6.3246 0
M  V30 497 C -10.2672 5.7625 6.6816 0
M  V30 498 H -8.8314 7.1553 5.9109 0
M  V30 499 H -11.1065 6.4263 6.5517 0
M  V30 500 H -11.4157 4.1423 7.4982 0
M  V30 501 N -5.7182 3.8255 6.8155 0
M  V30 502 H -7.0224 2.3900 7.5625 0
M  V30 503 C -4.6033 7.1931 10.5658 0
M  V30 504 C -3.7666 7.2966 9.4665 0
M  V30 505 C -4.2427 6.9041 8.2152 0
M  V30 506 H -2.7660 7.6835 9.5763 0
M  V30 507 N -5.4816 6.4161 8.0476 0
M  V30 508 C -3.4217 7.0239 7.0345 0
M  V30 509 C -6.2749 6.3186 9.1014 0
M  V30 510 C -5.8852 6.6958 10.3795 0
M  V30 511 H -7.2666 5.9305 8.9303 0
M  V30 512 H -6.5721 6.6053 11.2054 0
M  V30 513 H -4.2698 7.4954 11.5465 0
M  V30 514 N -3.8357 6.6505 5.8784 0
M  V30 515 H -2.4293 7.4387 7.1868 0
M  V30 516 C -7.0630 10.3653 4.4755 0
M  V30 517 C -7.1021 9.2366 3.6731 0
M  V30 518 C -6.7688 8.0008 4.2279 0
M  V30 519 H -7.3948 9.3126 2.6380 0
M  V30 520 N -6.3962 7.8767 5.5117 0
M  V30 521 C -6.8220 6.7896 3.4448 0
M  V30 522 C -6.3613 8.9577 6.2728 0
M  V30 523 C -6.6886 10.2229 5.8040 0
M  V30 524 H -6.0674 8.8190 7.3012 0
M  V30 525 H -6.6525 11.0728 6.4663 0
M  V30 526 H -7.3218 11.3357 4.0812 0
M  V30 527 N -6.4986 5.6481 3.9361 0
M  V30 528 H -7.1373 6.9050 2.4117 0
M  V30 529 Zn 6.0774 5.8874 -6.0729 0 CHG=2
M  V30 530 C 7.5244 10.4058 -4.9340 0
M  V30 531 C 7.6682 9.3183 -4.0876 0
M  V30 532 C 7.2170 8.0681 -4.5111 0
M  V30 533 H 8.1293 9.4362 -3.1197 0
M  V30 534 N 6.6360 7.8910 -5.7077 0
M  V30 535 C 7.3678 6.8980 -3.6796 0
M  V30 536 C 6.4976 8.9338 -6.5094 0
M  V30 537 C 6.9277 10.2099 -6.1714 0
M  V30 538 H 6.0315 8.7539 -7.4654 0
M  V30 539 H 6.8013 11.0273 -6.8627 0
M  V30 540 H 7.8701 11.3849 -4.6408 0
M  V30 541 N 6.9394 5.7467 -4.0497 0
M  V30 542 H 7.8500 7.0543 -2.7189 0
M  V30 543 C 10.5388 4.2305 -7.1604 0
M  V30 544 C 9.4058 3.4342 -7.1203 0
M  V30 545 C 8.1735 4.0266 -6.8448 0
M  V30 546 H 9.4757 2.3746 -7.3075 0
M  V30 547 N 8.0565 5.3412 -6.5993 0
M  V30 548 C 6.9536 3.2562 -6.8369 0
M  V30 549 C 9.1410 6.0966 -6.6422 0
M  V30 550 C 10.4033 5.5907 -6.9225 0
M  V30 551 H 9.0075 7.1504 -6.4548 0
M  V30 552 H 11.2558 6.2499 -6.9562 0
M  V30 553 H 11.5075 3.8080 -7.3778 0
M  V30 554 N 5.8178 3.7843 -6.5514 0
M  V30 555 H 7.0502 2.2022 -7.0822 0
M  V30 556 C 4.5416 6.8860 -10.5898 0
M  V30 557 C 3.7640 7.0623 -9.4567 0
M  V30 558 C 4.3019 6.7370 -8.2110 0
M  V30 559 H 2.7629 7.4554 -9.5364 0
M  V30 560 N 5.5441 6.2447 -8.0811 0
M  V30 561 C 3.5468 6.9304 -6.9959 0
M  V30 562 C 6.2788 6.0720 -9.1672 0
M  V30 563 C 5.8256 6.3809 -10.4428 0
M  V30 564 H 7.2720 5.6766 -9.0234 0
M  V30 565 H 6.4655 6.2321 -11.2975 0
M  V30 566 H 4.1606 7.1374 -11.5675 0
M  V30 567 N 4.0358 6.6397 -5.8442 0
M  V30 568 H 2.5436 7.3271 -7.1189 0
M  V30 569 Zn -5.9108 -6.2028 -5.9441 0 CHG=2
M  V30 570 C -6.9277 -10.7624 -4.4057 0
M  V30 571 C -6.7952 -9.6673 -3.5666 0
M  V30 572 C -6.4984 -8.4245 -4.1224 0
M  V30 573 H -6.9223 -9.7744 -2.5013 0
M  V30 574 N -6.3275 -8.2542 -5.4435 0
M  V30 575 C -6.3680 -7.2382 -3.3094 0
M  V30 576 C -6.4618 -9.3035 -6.2389 0
M  V30 577 C -6.7607 -10.5761 -5.7702 0
M  V30 578 H -6.3361 -9.1334 -7.2965 0
M  V30 579 H -6.8653 -11.3963 -6.4619 0
M  V30 580 H -7.1610 -11.7395 -4.0120 0
M  V30 581 N -5.9962 -6.1270 -3.8244 0
M  V30 582 H -6.5894 -7.3325 -2.2495 0
M  V30 583 C -10.5998 -4.8455 -6.0217 0
M  V30 584 C -9.5317 -3.9617 -6.0437 0
M  V30 585 C -8.2354 -4.4729 -6.0438 0
M  V30 586 H -9.7026 -2.8973 -6.0668 0
M  V30 587 N -7.9890 -5.7936 -6.0078 0
M  V30 588 C -7.0748 -3.6135 -6.1150 0
M  V30 589 C -9.0124 -6.6313 -5.9943 0
M  V30 590 C -10.3353 -6.2070 -6.0021 0
M  V30 591 H -8.7797 -7.6848 -5.9802 0
M  V30 592 H -11.1354 -6.9296 -5.9949 0
M  V30 593 H -11.6174 -4.4868 -6.0249 0
M  V30 594 N -5.8972 -4.1150 -6.1732 0
M  V30 595 H -7.2499 -2.5417 -6.1592 0
M  V30 596 C -5.1391 -7.7636 -10.4820 0
M  V30 597 C -4.2365 -7.9339 -9.4407 0
M  V30 598 C -4.5340 -7.3762 -8.2010 0
M  V30 599 H -3.3237 -8.4885 -9.5908 0
M  V30 600 N -5.6619 -6.6787 -7.9834 0
M  V30 601 C -3.6411 -7.4899 -7.0610 0
M  V30 602 C -6.5142 -6.5122 -8.9797 0
M  V30 603 C -6.2975 -7.0376 -10.2487 0
M  V30 604 H -7.4058 -5.9433 -8.7647 0
M  V30 605 H -7.0219 -6.8845 -11.0323 0
M  V30 606 H -4.9447 -8.1893 -11.4542 0
M  V30 607 N -3.8864 -6.8231 -6.0041 0
M  V30 608 H -2.7651 -8.1264 -7.1603 0
M  V30 END ATOM
M  V30 BEGIN BOND
M  V30 1 2 1 2
M  V30 2 1 2 3
M  V30 3 2 3 4
M  V30 4 1 4 5
M  V30 5 2 5 6
M  V30 6 1 6 7
M  V30 7 1 7 8
M  V30 8 2 8 9
M  V30 9 1 9 10
M  V30 10 2 10 11
M  V30 11 1 11 12
M  V30 12 2 12 13
M  V30 13 2 7 14
M  V30 14 1 14 15
M  V30 15 2 15 16
M  V30 16 1 16 17
M  V30 17 2 17 18
M  V30 18 1 18 19
M  V30 19 2 19 20
M  V30 20 1 14 21
M  V30 21 2 21 22
M  V30 22 1 22 23
M  V30 23 2 23 24
M  V30 24 1 24 25
M  V30 25 2 25 26
M  V30 26 1 26 27
M  V30 27 2 27 28
M  V30 28 1 4 29
M  V30 29 2 29 30
M  V30 30 1 30 1
M  V30 31 1 22 5
M  V30 32 1 28 23
M  V30 33 1 13 8
M  V30 34 1 20 15
M  V30 35 1 2 31
M  V30 36 1 3 32
M  V30 37 1 6 33
M  V30 38 1 9 34
M  V30 39 1 10 35
M  V30 40 1 12 36
M  V30 41 1 13 37
M  V30 42 1 16 38
M  V30 43 1 17 39
M  V30 44 1 19 40
M  V30 45 1 20 41
M  V30 46 1 21 42
M  V30 47 1 24 43
M  V30 48 1 25 44
M  V30 49 1 27 45
M  V30 50 1 28 46
M  V30 51 1 29 47
M  V30 52 1 30 48
M  V30 53 2 49 50
M  V30 54 1 50 51
M  V30 55 2 51 52
M  V30 56 1 52 53
M  V30 57 2 53 54
M  V30 58 1 54 55
M  V30 59 1 55 56
M  V30 60 2 56 57
M  V30 61 1 57 58
M  V30 62 2 58 59
M  V30 63 1 59 60
M  V30 64 2 60 61
M  V30 65 2 55 62
M  V30 66 1 62 63
M  V30 67 2 63 64
M  V30 68 1 64 65
M  V30 69 2 65 66
M  V30 70 1 66 67
M  V30 71 2 67 68
M  V30 72 1 62 69
M  V30 73 2 69 70
M  V30 74 1 70 71
M  V30 75 2 71 72
M  V30 76 1 72 73
M  V30 77 2 73 74
M  V30 78 1 74 75
M  V30 79 2 75 76
M  V30 80 1 52 77
M  V30 81 2 77 78
M  V30 82 1 78 49
M  V30 83 1 70 53
M  V30 84 1 76 71
M  V30 85 1 61 56
M  V30 86 1 68 63
M  V30 87 1 50 79
M  V30 88 1 51 80
M  V30 89 1 54 81
M  V30 90 1 57 82
M  V30 91 1 58 83
M  V30 92 1 60 84
M  V30 93 1 61 85
M  V30 94 1 64 86
M  V30 95 1 65 87
M  V30 96 1 67 88
M  V30 97 1 68 89
M  V30 98 1 69 90
M  V30 99 1 72 91
M  V30 100 1 73 92
M  V30 101 1 75 93
M  V30 102 1 76 94
M  V30 103 1 77 95
M  V30 104 1 78 96
M  V30 105 2 97 98
M  V30 106 1 98 99
M  V30 107 2 99 100
M  V30 108 1 100 101
M  V30 109 2 101 102
M  V30 110 1 102 103
M  V30 111 1 103 104
M  V30 112 2 104 105
M  V30 113 1 105 106
M  V30 114 2 106 107
M  V30 115 1 107 108
M  V30 116 2 108 109
M  V30 117 2 103 110
M  V30 118 1 110 111
M  V30 119 2 111 112
M  V30 120 1 112 113
M  V30 121 2 113 114
M  V30 122 1 114 115
M  V30 123 2 115 116
M  V30 124 1 110 117
M  V30 125 2 117 118
M  V30 126 1 118 119
M  V30 127 2 119 120
M  V30 128 1 120 121
M  V30 129 2 121 122
M  V30 130 1 122 123
M  V30 131 2 123 124
M  V30 132 1 100 125
M  V30 133 2 125 126
M  V30 134 1 126 97
M  V30 135 1 118 101
M  V30 136 1 124 119
M  V30 137 1 109 104
M  V30 138 1 116 111
M  V30 139 1 98 127
M  V30 140 1 99 128
M  V30 141 1 102 129
M  V30 142 1 105 130
M  V30 143 1 106 131
M  V30 144 1 108 132
M  V30 145 1 109 133
M  V30 146 1 112 134
M  V30 147 1 113 135
M  V30 148 1 115 136
M  V30 149 1 116 137
M  V30 150 1 117 138
M  V30 151 1 120 139
M  V30 152 1 121 140
M  V30 153 1 123 141
M  V30 154 1 124 142
M  V30 155 1 125 143
M  V30 156 1 126 144
M  V30 157 2 145 146
M  V30 158 1 146 147
M  V30 159 2 147 148
M  V30 160 1 148 149
M  V30 161 2 149 150
M  V30 162 1 150 151
M  V30 163 1 151 152
M  V30 164 2 152 153
M  V30 165 1 153 154
M  V30 166 2 154 155
M  V30 167 1 155 156
M  V30 168 2 156 157
M  V30 169 2 151 158
M  V30 170 1 158 159
M  V30 171 2 159 160
M  V30 172 1 160 161
M  V30 173 2 161 162
M  V30 174 1 162 163
M  V30 175 2 163 164
M  V30 176 1 158 165
M  V30 177 2 165 166
M  V30 178 1 166 167
M  V30 179 2 167 168
M  V30 180 1 168 169
M  V30 181 2 169 170
M  V30 182 1 170 171
M  V30 183 2 171 172
M  V30 184 1 148 173
M  V30 185 2 173 174
M  V30 186 1 174 145
M  V30 187 1 166 149
M  V30 188 1 172 167
M  V30 189 1 157 152
M  V30 190 1 164 159
M  V30 191 1 146 175
M  V30 192 1 147 176
M  V30 193 1 150 177
M  V30 194 1 153 178
M  V30 195 1 154 179
M  V30 196 1 156 180
M  V30 197 1 157 181
M  V30 198 1 160 182
M  V30 199 1 161 183
M  V30 200 1 163 184
M  V30 201 1 164 185
M  V30 202 1 165 186
M  V30 203 1 168 187
M  V30 204 1 169 188
M  V30 205 1 171 189
M  V30 206 1 172 190
M  V30 207 1 173 191
M  V30 208 1 174 192
M  V30 209 2 193 194
M  V30 210 1 194 195
M  V30 211 2 195 196
M  V30 212 1 196 197
M  V30 213 2 197 198
M  V30 214 1 198 199
M  V30 215 1 199 200
M  V30 216 2 200 201
M  V30 217 1 201 202
M  V30 218 2 202 203
M  V30 219 1 203 204
M  V30 220 2 204 205
M  V30 221 2 199 206
M  V30 222 1 206 207
M  V30 223 2 207 208
M  V30 224 1 208 209
M  V30 225 2 209 210
M  V30 226 1 210 211
M  V30 227 2 211 212
M  V30 228 1 206 213
M  V30 229 2 213 214
M  V30 230 1 214 215
M  V30 231 2 215 216
M  V30 232 1 216 217
M  V30 233 2 217 218
M  V30 234 1 218 219
M  V30 235 2 219 220
M  V30 236 1 196 221
M  V30 237 2 221 222
M  V30 238 1 222 193
M  V30 239 1 214 197
M  V30 240 1 220 215
M  V30 241 1 205 200
M  V30 242 1 212 207
M  V30 243 1 194 223
M  V30 244 1 195 224
M  V30 245 1 198 225
M  V30 246 1 201 226
M  V30 247 1 202 227
M  V30 248 1 204 228
M  V30 249 1 205 229
M  V30 250 1 208 230
M  V30 251 1 209 231
M  V30 252 1 211 232
M  V30 253 1 212 233
M  V30 254 1 213 234
M  V30 255 1 216 235
M  V30 256 1 217 236
M  V30 257 1 219 237
M  V30 258 1 220 238
M  V30 259 1 221 239
M  V30 260 1 222 240
M  V30 261 2 241 242
M  V30 262 1 242 243
M  V30 263 2 243 244
M  V30 264 1 244 245
M  V30 265 2 245 246
M  V30 266 1 246 247
M  V30 267 1 247 248
M  V30 268 2 248 249
M  V30 269 1 249 250
M  V30 270 2 250 251
M  V30 271 1 251 252
M  V30 272 2 252 253
M  V30 273 2 247 254
M  V30 274 1 254 255
M  V30 275 2 255 256
M  V30 276 1 256 257
M  V30 277 2 257 258
M  V30 278 1 258 259
M  V30 279 2 259 260
M  V30 280 1 254 261
M  V30 281 2 261 262
M  V30 282 1 262 263
M  V30 283 2 263 264
M  V30 284 1 264 265
M  V30 285 2 265 266
M  V30 286 1 266 267
M  V30 287 2 267 268
M  V30 288 1 244 269
M  V30 289 2 269 270
M  V30 290 1 270 241
M  V30 291 1 262 245
M  V30 292 1 268 263
M  V30 293 1 253 248
M  V30 294 1 260 255
M  V30 295 1 242 271
M  V30 296 1 243 272
M  V30 297 1 246 273
M  V30 298 1 249 274
M  V30 299 1 250 275
M  V30 300 1 252 276
M  V30 301 1 253 277
M  V30 302 1 256 278
M  V30 303 1 257 279
M  V30 304 1 259 280
M  V30 305 1 260 281
M  V30 306 1 261 282
M  V30 307 1 264 283
M  V30 308 1 265 284
M  V30 309 1 267 285
M  V30 310 1 268 286
M  V30 311 1 269 287
M  V30 312 1 270 288
M  V30 313 1 290 300
M  V30 314 2 290 297
M  V30 315 1 291 290
M  V30 316 2 292 291
M  V30 317 1 292 294
M  V30 318 1 293 291
M  V30 319 2 294 296
M  V30 320 1 295 292
M  V30 321 1 296 297
M  V30 322 1 296 298
M  V30 323 1 297 299
M  V30 324 2 301 295
M  V30 325 1 302 295
M  V30 326 1 303 313
M  V30 327 2 303 310
M  V30 328 1 304 303
M  V30 329 2 305 304
M  V30 330 1 305 307
M  V30 331 1 306 304
M  V30 332 2 307 309
M  V30 333 1 308 305
M  V30 334 1 309 310
M  V30 335 1 309 311
M  V30 336 1 310 312
M  V30 337 2 314 308
M  V30 338 1 315 308
M  V30 339 1 316 326
M  V30 340 2 316 323
M  V30 341 1 317 316
M  V30 342 2 318 317
M  V30 343 1 318 320
M  V30 344 1 319 317
M  V30 345 2 320 322
M  V30 346 1 321 318
M  V30 347 1 322 323
M  V30 348 1 322 324
M  V30 349 1 323 325
M  V30 350 2 327 321
M  V30 351 1 328 321
M  V30 352 9 301 289
M  V30 353 9 294 289
M  V30 354 9 314 289
M  V30 355 9 307 289
M  V30 356 9 327 289
M  V30 357 9 320 289
M  V30 358 1 330 340
M  V30 359 2 330 337
M  V30 360 1 331 330
M  V30 361 2 332 331
M  V30 362 1 332 334
M  V30 363 1 333 331
M  V30 364 2 334 336
M  V30 365 1 335 332
M  V30 366 1 336 337
M  V30 367 1 336 338
M  V30 368 1 337 339
M  V30 369 2 341 335
M  V30 370 1 342 335
M  V30 371 1 343 353
M  V30 372 2 343 350
M  V30 373 1 344 343
M  V30 374 2 345 344
M  V30 375 1 345 347
M  V30 376 1 346 344
M  V30 377 2 347 349
M  V30 378 1 348 345
M  V30 379 1 349 350
M  V30 380 1 349 351
M  V30 381 1 350 352
M  V30 382 2 354 348
M  V30 383 1 355 348
M  V30 384 1 356 366
M  V30 385 2 356 363
M  V30 386 1 357 356
M  V30 387 2 358 357
M  V30 388 1 358 360
M  V30 389 1 359 357
M  V30 390 2 360 362
M  V30 391 1 361 358
M  V30 392 1 362 363
M  V30 393 1 362 364
M  V30 394 1 363 365
M  V30 395 2 367 361
M  V30 396 1 368 361
M  V30 397 9 341 329
M  V30 398 9 334 329
M  V30 399 9 354 329
M  V30 400 9 347 329
M  V30 401 9 367 329
M  V30 402 9 360 329
M  V30 403 1 370 380
M  V30 404 2 370 377
M  V30 405 1 371 370
M  V30 406 2 372 371
M  V30 407 1 372 374
M  V30 408 1 373 371
M  V30 409 2 374 376
M  V30 410 1 375 372
M  V30 411 1 376 377
M  V30 412 1 376 378
M  V30 413 1 377 379
M  V30 414 2 381 375
M  V30 415 1 382 375
M  V30 416 1 383 393
M  V30 417 2 383 390
M  V30 418 1 384 383
M  V30 419 2 385 384
M  V30 420 1 385 387
M  V30 421 1 386 384
M  V30 422 2 387 389
M  V30 423 1 388 385
M  V30 424 1 389 390
M  V30 425 1 389 391
M  V30 426 1 390 392
M  V30 427 2 394 388
M  V30 428 1 395 388
M  V30 429 1 396 406
M  V30 430 2 396 403
M  V30 431 1 397 396
M  V30 432 2 398 397
M  V30 433 1 398 400
M  V30 434 1 399 397
M  V30 435 2 400 402
M  V30 436 1 401 398
M  V30 437 1 402 403
M  V30 438 1 402 404
M  V30 439 1 403 405
M  V30 440 2 407 401
M  V30 441 1 408 401
M  V30 442 9 381 369
M  V30 443 9 374 369
M  V30 444 9 394 369
M  V30 445 9 387 369
M  V30 446 9 407 369
M  V30 447 9 400 369
M  V30 448 1 410 420
M  V30 449 2 410 417
M  V30 450 1 411 410
M  V30 451 2 412 411
M  V30 452 1 412 414
M  V30 453 1 413 411
M  V30 454 2 414 416
M  V30 455 1 415 412
M  V30 456 1 416 417
M  V30 457 1 416 418
M  V30 458 1 417 419
M  V30 459 2 421 415
M  V30 460 1 422 415
M  V30 461 1 423 433
M  V30 462 2 423 430
M  V30 463 1 424 423
M  V30 464 2 425 424
M  V30 465 1 425 427
M  V30 466 1 426 424
M  V30 467 2 427 429
M  V30 468 1 428 425
M  V30 469 1 429 430
M  V30 470 1 429 431
M  V30 471 1 430 432
M  V30 472 2 434 428
M  V30 473 1 435 428
M  V30 474 1 436 446
M  V30 475 2 436 443
M  V30 476 1 437 436
M  V30 477 2 438 437
M  V30 478 1 438 440
M  V30 479 1 439 437
M  V30 480 2 440 442
M  V30 481 1 441 438
M  V30 482 1 442 443
M  V30 483 1 442 444
M  V30 484 1 443 445
M  V30 485 2 447 441
M  V30 486 1 448 441
M  V30 487 9 421 409
M  V30 488 9 414 409
M  V30 489 9 434 409
M  V30 490 9 427 409
M  V30 491 9 447 409
M  V30 492 9 440 409
M  V30 493 1 450 460
M  V30 494 2 450 457
M  V30 495 1 451 450
M  V30 496 2 452 451
M  V30 497 1 452 454
M  V30 498 1 453 451
M  V30 499 2 454 456
M  V30 500 1 455 452
M  V30 501 1 456 457
M  V30 502 1 456 458
M  V30 503 1 457 459
M  V30 504 2 461 455
M  V30 505 1 462 455
M  V30 506 1 463 473
M  V30 507 2 463 470
M  V30 508 1 464 463
M  V30 509 2 465 464
M  V30 510 1 465 467
M  V30 511 1 466 464
M  V30 512 2 467 469
M  V30 513 1 468 465
M  V30 514 1 469 470
M  V30 515 1 469 471
M  V30 516 1 470 472
M  V30 517 2 474 468
M  V30 518 1 475 468
M  V30 519 1 476 486
M  V30 520 2 476 483
M  V30 521 1 477 476
M  V30 522 2 478 477
M  V30 523 1 478 480
M  V30 524 1 479 477
M  V30 525 2 480 482
M  V30 526 1 481 478
M  V30 527 1 482 483
M  V30 528 1 482 484
M  V30 529 1 483 485
M  V30 530 2 487 481
M  V30 531 1 488 481
M  V30 532 9 461 449
M  V30 533 9 454 449
M  V30 534 9 487 449
M  V30 535 9 480 449
M  V30 536 9 474 449
M  V30 537 9 467 449
M  V30 538 1 490 500
M  V30 539 2 490 497
M  V30 540 1 491 490
M  V30 541 2 492 491
M  V30 542 1 492 494
M  V30 543 1 493 491
M  V30 544 2 494 496
M  V30 545 1 495 492
M  V30 546 1 496 497
M  V30 547 1 496 498
M  V30 548 1 497 499
M  V30 549 2 501 495
M  V30 550 1 502 495
M  V30 551 1 503 513
M  V30 552 2 503 510
M  V30 553 1 504 503
M  V30 554 2 505 504
M  V30 555 1 505 507
M  V30 556 1 506 504
M  V30 557 2 507 509
M  V30 558 1 508 505
M  V30 559 1 509 510
M  V30 560 1 509 511
M  V30 561 1 510 512
M  V30 562 2 514 508
M  V30 563 1 515 508
M  V30 564 1 516 526
M  V30 565 2 516 523
M  V30 566 1 517 516
M  V30 567 2 518 517
M  V30 568 1 518 520
M  V30 569 1 519 517
M  V30 570 2 520 522
M  V30 571 1 521 518
M  V30 572 1 522 523
M  V30 573 1 522 524
M  V30 574 1 523 525
M  V30 575 2 527 521
M  V30 576 1 528 521
M  V30 577 9 501 489
M  V30 578 9 494 489
M  V30 579 9 527 489
M  V30 580 9 520 489
M  V30 581 9 514 489
M  V30 582 9 507 489
M  V30 583 1 530 540
M  V30 584 2 530 537
M  V30 585 1 531 530
M  V30 586 2 532 531
M  V30 587 1 532 534
M  V30 588 1 533 531
M  V30 589 2 534 536
M  V30 590 1 535 532
M  V30 591 1 536 537
M  V30 592 1 536 538
M  V30 593 1 537 539
M  V30 594 2 541 535
M  V30 595 1 542 535
M  V30 596 1 543 553
M  V30 597 2 543 550
M  V30 598 1 544 543
M  V30 599 2 545 544
M  V30 600 1 545 547
M  V30 601 1 546 544
M  V30 602 2 547 549
M  V30 603 1 548 545
M  V30 604 1 549 550
M  V30 605 1 549 551
M  V30 606 1 550 552
M  V30 607 2 554 548
M  V30 608 1 555 548
M  V30 609 1 556 566
M  V30 610 2 556 563
M  V30 611 1 557 556
M  V30 612 2 558 557
M  V30 613 1 558 560
M  V30 614 1 559 557
M  V30 615 2 560 562
M  V30 616 1 561 558
M  V30 617 1 562 563
M  V30 618 1 562 564
M  V30 619 1 563 565
M  V30 620 2 567 561
M  V30 621 1 568 561
M  V30 622 9 541 529
M  V30 623 9 534 529
M  V30 624 9 567 529
M  V30 625 9 560 529
M  V30 626 9 554 529
M  V30 627 9 547 529
M  V30 628 1 570 580
M  V30 629 2 570 577
M  V30 630 1 571 570
M  V30 631 2 572 571
M  V30 632 1 572 574
M  V30 633 1 573 571
M  V30 634 2 574 576
M  V30 635 1 575 572
M  V30 636 1 576 577
M  V30 637 1 576 578
M  V30 638 1 577 579
M  V30 639 2 581 575
M  V30 640 1 582 575
M  V30 641 1 583 593
M  V30 642 2 583 590
M  V30 643 1 584 583
M  V30 644 2 585 584
M  V30 645 1 585 587
M  V30 646 1 586 584
M  V30 647 2 587 589
M  V30 648 1 588 585
M  V30 649 1 589 590
M  V30 650 1 589 591
M  V30 651 1 590 592
M  V30 652 2 594 588
M  V30 653 1 595 588
M  V30 654 1 596 606
M  V30 655 2 596 603
M  V30 656 1 597 596
M  V30 657 2 598 597
M  V30 658 1 598 600
M  V30 659 1 599 597
M  V30 660 2 600 602
M  V30 661 1 601 598
M  V30 662 1 602 603
M  V30 663 1 602 604
M  V30 664 1 603 605
M  V30 665 2 607 601
M  V30 666 1 608 601
M  V30 667 9 581 569
M  V30 668 9 574 569
M  V30 669 9 607 569
M  V30 670 9 600 569
M  V30 671 9 594 569
M  V30 672 9 587 569
M  V30 673 1 11 301
M  V30 674 1 18 461
M  V30 675 1 26 341
M  V30 676 1 1 501
M  V30 677 1 66 541
M  V30 678 1 74 381
M  V30 679 1 49 487
M  V30 680 1 59 327
M  V30 681 1 114 567
M  V30 682 1 122 314
M  V30 683 1 97 514
M  V30 684 1 107 421
M  V30 685 1 162 527
M  V30 686 1 170 367
M  V30 687 1 145 581
M  V30 688 1 155 434
M  V30 689 1 203 394
M  V30 690 1 210 554
M  V30 691 1 218 447
M  V30 692 1 193 594
M  V30 693 1 258 474
M  V30 694 1 266 407
M  V30 695 1 241 607
M  V30 696 1 251 354
M  V30 END BOND
M  V30 END CTAB
M  END

$$$$
