212
trans_l2_la
Pd   -5.657300   -2.140600    1.330700
Pd    6.252700   -2.821400   -1.164200
 C   -0.474500    1.467700   -4.293500
 C    0.794700    0.958500   -4.028000
 C    1.014100    0.183500   -2.881500
 C   -0.056400   -0.049500   -2.012600
 C   -1.333400    0.452300   -2.271100
 C   -1.539800    1.207700   -3.434700
 C   -2.419000    0.124800   -1.328200
 C   -2.173400    0.003100    0.048400
 C   -3.164100   -0.479600    0.888400
 N   -4.376500   -0.815800    0.427400
 C   -4.664800   -0.607200   -0.870300
 C   -3.722300   -0.140800   -1.769400
 C    2.319700   -0.420500   -2.561000
 C    3.241800   -0.822500   -3.536800
 C    4.411100   -1.470500   -3.159600
 N    4.695200   -1.719500   -1.874700
 C    3.841300   -1.308900   -0.922100
 C    2.664100   -0.660500   -1.223300
 H   -0.635900    2.081100   -5.181900
 H    1.619300    1.180800   -4.708300
 H    0.089200   -0.692800   -1.144000
 H   -2.526200    1.619400   -3.658700
 H   -1.203200    0.261400    0.473900
 H   -2.982300   -0.622900    1.955200
 H   -5.676000   -0.859400   -1.200300
 H   -3.997400   -0.048500   -2.820700
 H    3.044900   -0.673900   -4.599000
 H    5.134200   -1.814600   -3.901200
 H    4.119100   -1.505000    0.115200
 H    2.022900   -0.339600   -0.403800
 C   -0.474800   -7.804800   -2.367400
 C    0.836000   -7.367000   -2.197300
 C    1.105200   -6.244500   -1.402300
 C    0.041700   -5.576900   -0.784600
 C   -1.281100   -5.989700   -0.981200
 C   -1.531400   -7.114900   -1.778700
 C   -2.381500   -5.201400   -0.392900
 C   -2.260200   -4.619500    0.876700
 C   -3.271800   -3.808800    1.360200
 N   -4.378300   -3.553700    0.645600
 C   -4.537800   -4.133100   -0.553100
 C   -3.570300   -4.963100   -1.096500
 C    2.469300   -5.695900   -1.270600
 C    2.935000   -5.168600   -0.057800
 C    4.150100   -4.505700   -0.020100
 N    4.902300   -4.342600   -1.119200
 C    4.517900   -4.916300   -2.269500
 C    3.323400   -5.608900   -2.378300
 H   -0.676200   -8.691400   -2.971700
 H    1.656100   -7.908500   -2.673900
 H    0.241700   -4.674100   -0.203000
 H   -2.556100   -7.462700   -1.926800
 H   -1.381600   -4.796100    1.498100
 H   -3.199700   -3.338900    2.342800
 H   -5.456300   -3.901600   -1.096600
 H   -3.732500   -5.381200   -2.090500
 H    2.348900   -5.253500    0.858000
 H    4.525800   -4.062100    0.904300
 H    5.168500   -4.772200   -3.134300
 H    3.032800   -6.012200   -3.349100
 C   -8.981400   -0.095200    3.127300
 C   -8.039200   -1.017200    2.769300
 N   -6.908000   -0.671700    2.084400
 C   -6.651100    0.613900    1.891000
 C   -7.497500    1.654700    2.334800
 C   -7.152600    3.042700    2.218700
 C   -5.776800    3.510000    1.950600
 C   -5.551200    4.693300    1.227400
 C   -4.277700    5.225300    1.100400
 C   -3.167400    4.578000    1.674700
 C   -1.862400    5.130100    1.553800
 C   -0.746800    5.608700    1.442400
 C    0.549000    6.174500    1.276400
 C    1.693000    5.453500    1.656500
 C    2.943800    6.030600    1.453700
 C    4.316200    5.624900    1.685300
 C    4.938900    4.486900    2.188900
 C    6.342600    4.441800    2.217900
 C    6.997700    3.238000    2.604100
 C    7.529400    2.167000    2.842400
 C    8.108300    0.877600    3.014800
 C    9.424900    0.617000    2.593700
 C    9.934100   -0.675900    2.634100
 C    9.148600   -1.740000    3.095100
 C    9.606100   -3.140900    2.904500
 C   10.567200   -3.754600    3.678000
 C   10.982900   -5.080800    3.403600
 C   10.463100   -5.795200    2.347800
 C    9.490300   -5.197400    1.510800
 C    8.927200   -5.829800    0.372400
 C    8.019400   -5.165300   -0.412900
 N    7.626500   -3.894200   -0.121800
 C    8.111300   -3.285400    0.946400
 C    9.057300   -3.872500    1.805000
 C    7.859200   -1.470500    3.575600
 C    7.343700   -0.181300    3.539900
 C    7.099000    5.556000    1.780900
 C    6.489000    6.701200    1.282100
 C    5.101200    6.702900    1.233200
 O    4.327900    7.713900    0.753200
 C    3.033400    7.312900    0.878700
 C    1.920800    8.049000    0.494300
 C    0.678200    7.462500    0.701400
 C   -3.383100    3.380300    2.380000
 C   -4.665000    2.867700    2.524600
 C   -8.145300    3.972900    2.486400
 C   -9.431400    3.592000    2.920300
 C   -9.733700    2.270100    3.153800
 C   -8.764500    1.280500    2.875800
 H   -9.899200   -0.426900    3.615200
 H   -8.173900   -2.069100    3.005000
 H   -5.747100    0.860400    1.337800
 H   -6.389000    5.201400    0.745400
 H   -4.127100    6.151900    0.543900
 H    1.593900    4.457200    2.089500
 H    4.357700    3.629600    2.529400
 H   10.030500    1.431200    2.192000
 H   10.938900   -0.873400    2.253800
 H   11.012500   -3.213700    4.515500
 H   11.738500   -5.538900    4.045600
 H   10.798800   -6.813200    2.140500
 H    9.224400   -6.845600    0.106600
 H    7.580400   -5.620600   -1.301000
 H    7.760300   -2.272200    1.140000
 H    7.239400   -2.290100    3.947400
 H    6.328400    0.012200    3.890600
 H    8.188100    5.501100    1.823800
 H    7.070400    7.556200    0.934900
 H    2.021000    9.040000    0.049900
 H   -0.226200    7.998800    0.410200
 H   -2.537600    2.868900    2.843800
 H   -4.804300    1.977600    3.141100
 H   -7.910400    5.036600    2.418800
 H  -10.174000    4.367200    3.120900
 H  -10.705000    1.972700    3.553700
 C   -8.075300   -5.659300    2.202000
 C   -7.049400   -4.748200    2.292100
 N   -7.069700   -3.593100    1.573200
 C   -8.084300   -3.343400    0.764800
 C   -9.187900   -4.197900    0.617300
 C  -10.277800   -3.827900   -0.234400
 C  -10.117000   -2.491200   -0.870500
 C   -9.287000   -2.352000   -1.991100
 C   -8.711800   -1.123400   -2.295900
 C   -8.959300   -0.000100   -1.484300
 C   -8.199600    1.195700   -1.657100
 C   -7.486500    2.178700   -1.761500
 C   -6.675100    3.343100   -1.918900
 C   -5.276400    3.257500   -1.824100
 C   -4.518400    4.410700   -2.019100
 C   -3.105100    4.743000   -1.990100
 C   -1.923200    4.054100   -1.719400
 C   -0.704400    4.742700   -1.809900
 C    0.548500    4.115500   -1.544000
 C    1.679800    3.712000   -1.333200
 C    3.053400    3.365700   -1.175500
 C    3.509400    2.451000   -0.210900
 C    4.864500    2.156500   -0.096800
 C    5.809500    2.763900   -0.937900
 C    7.265200    2.498000   -0.859900
 C    8.143300    3.564300   -0.784000
 C    9.541700    3.378800   -0.758300
 C   10.090700    2.121200   -0.855300
 C    9.238300    1.000200   -0.976400
 C    9.727900   -0.315000   -1.166200
 C    8.860000   -1.364400   -1.292900
 N    7.507800   -1.193500   -1.210400
 C    7.019100    0.027500   -1.062500
 C    7.822000    1.180600   -0.949100
 C    5.352000    3.694100   -1.884900
 C    4.003300    3.990300   -2.006000
 C   -0.688200    6.116500   -2.156100
 C   -1.858300    6.825200   -2.390800
 C   -3.047400    6.116100   -2.296300
 O   -4.289300    6.641500   -2.477400
 C   -5.173700    5.623000   -2.308800
 C   -6.554200    5.742500   -2.388500
 C   -7.296900    4.585900   -2.188200
 C   -9.902000   -0.111900   -0.446600
 C  -10.468900   -1.345200   -0.144300
 C  -11.339100   -4.695800   -0.339600
 C  -11.339400   -5.919900    0.379700
 C  -10.302100   -6.278600    1.211900
 C   -9.190500   -5.411900    1.358000
 H   -8.029700   -6.575500    2.793000
 H   -6.185200   -4.908000    2.937800
 H   -8.042000   -2.410100    0.204700
 H   -9.010700   -3.236000   -2.570700
 H   -8.013100   -1.039800   -3.130700
 H   -4.802500    2.303500   -1.593900
 H   -1.935600    3.004500   -1.431500
 H    2.793400    1.985900    0.468900
 H    5.196800    1.474400    0.689300
 H    7.740400    4.576400   -0.722700
 H   10.190300    4.253100   -0.669900
 H   11.172400    1.974300   -0.855400
 H   10.802200   -0.495700   -1.226900
 H    9.215900   -2.379300   -1.463200
 H    5.937500    0.129600   -1.035500
 H    6.069200    4.176900   -2.552100
 H    3.667100    4.708800   -2.755500
 H    0.273400    6.628000   -2.217300
 H   -1.848400    7.887800   -2.636600
 H   -7.028700    6.701000   -2.602200
 H   -8.385800    4.627200   -2.246900
 H  -10.129400    0.759700    0.170300
 H  -11.117900   -1.439400    0.729400
 H  -12.190800   -4.443600   -0.974400
 H  -12.195700   -6.589300    0.271800
 H  -10.328700   -7.219800    1.764300
