254
m2_ld
Pd    9.952500    0.763600   -0.673500
Pd  -10.002900    0.887100   -0.006300
 C  -10.672800    2.555700    3.860100
 C   -9.596400    2.064000    4.639500
 C   -8.635500    1.222400    3.998300
 C   -7.526000    0.699000    4.738400
 C   -7.407600    1.062500    6.068200
 C   -8.354900    1.897800    6.698600
 C   -9.438100    2.387800    6.007200
 C   -6.507700   -0.184100    4.126000
 C   -6.849100   -1.349300    3.419100
 C   -5.868600   -2.169700    2.874400
 C   -4.505000   -1.856000    3.027700
 C   -3.476600   -2.668000    2.469200
 C   -2.559300   -3.328600    2.004500
 C   -1.452900   -4.003500    1.453600
 C   -1.324400   -5.322100    1.034200
 C   -0.054200   -5.609000    0.496800
 C    0.795900   -4.509400    0.495400
 C    2.081100   -4.348200   -0.056500
 C    3.145300   -4.083700   -0.597300
 C    4.280000   -3.663900   -1.347900
 C    4.543100   -2.287100   -1.477500
 C    5.538200   -1.826200   -2.329000
 C    6.311600   -2.725500   -3.082000
 C    7.213600   -2.257300   -4.161500
 C    8.204400   -1.234400   -3.992800
 C    8.946500   -0.762000   -5.120900
 C    9.903500    0.260600   -4.908500
 C   10.135100    0.735400   -3.646100
 N    9.471200    0.231600   -2.571200
 C    8.544300   -0.700500   -2.732300
 C    8.725500   -1.332900   -6.395700
 C    7.810200   -2.349400   -6.532200
 C    7.060300   -2.801500   -5.425600
 C    6.094700   -4.101800   -2.895400
 C    5.101600   -4.569500   -2.044000
 S    0.015000   -3.126200    1.183400
 C   -4.163000   -0.699100    3.753100
 C   -5.147200    0.119800    4.285700
 C   -8.812600    0.971300    2.622300
 N   -9.834400    1.446200    1.930900
 C  -10.767500    2.231900    2.533400
 H  -11.428000    3.198900    4.314300
 H   -6.571600    0.672500    6.652700
 H   -8.223800    2.145300    7.754200
 H  -10.176500    3.027100    6.494900
 H   -7.897800   -1.637600    3.312600
 H   -6.158400   -3.065000    2.324100
 H   -2.138700   -6.043100    1.108900
 H    0.238800   -6.579300    0.095600
 H    3.909000   -1.581000   -0.943100
 H    5.663900   -0.748200   -2.459700
 H   10.470000    0.662000   -5.750200
 H   10.868100    1.517000   -3.443000
 H    8.057600   -1.076100   -1.829600
 H    9.292600   -0.963900   -7.252200
 H    7.639000   -2.804500   -7.510000
 H    6.307400   -3.577200   -5.579500
 H    6.705400   -4.819600   -3.447600
 H    4.935700   -5.643000   -1.937500
 H   -3.113500   -0.435600    3.878000
 H   -4.857100    1.024800    4.823900
 H   -8.087300    0.364700    2.077600
 H  -11.581100    2.593400    1.903700
 C   -9.395700    4.496600   -2.129500
 C   -8.051400    4.859800   -1.870600
 C   -7.295500    4.043400   -0.972200
 C   -5.916800    4.341800   -0.722800
 C   -5.378300    5.465400   -1.329800
 C   -6.136600    6.287600   -2.188300
 C   -7.448500    5.988400   -2.472300
 C   -5.024100    3.479000    0.078400
 C   -4.068900    4.073600    0.918600
 C   -3.094300    3.312500    1.542700
 C   -3.051200    1.921100    1.349500
 C   -1.993200    1.157200    1.911700
 C   -1.064200    0.516700    2.370700
 C    0.018700   -0.233100    2.861600
 C    0.058100   -1.076700    3.958600
 C    1.309400   -1.702800    4.125400
 C    2.226100   -1.344100    3.153100
 C    3.539200   -1.820100    2.979400
 C    4.662900   -2.259800    2.807000
 C    5.954400   -2.801400    2.549700
 C    6.082900   -3.950100    1.749600
 C    7.340700   -4.434000    1.414300
 C    8.495500   -3.785600    1.868900
 C    9.824700   -4.190300    1.360000
 C   10.578900   -3.251700    0.589300
 C   11.862500   -3.597900    0.074500
 C   12.553800   -2.614900   -0.678400
 C   11.983900   -1.388900   -0.899400
 N   10.745700   -1.084400   -0.418300
 C   10.070100   -1.974400    0.281700
 C   12.374900   -4.893300    0.323000
 C   11.623800   -5.795900    1.041600
 C   10.352700   -5.450100    1.555900
 C    8.365100   -2.676400    2.720000
 C    7.111800   -2.184500    3.055700
 S    1.539300   -0.212300    2.028800
 C   -4.033900    1.311400    0.552900
 C   -5.001800    2.083000   -0.073900
 C   -7.966100    2.958900   -0.366100
 N   -9.214100    2.635100   -0.658800
 C   -9.933300    3.388100   -1.536400
 H  -10.001700    5.092500   -2.813500
 H   -4.321000    5.692500   -1.180400
 H   -5.660200    7.154700   -2.650300
 H   -8.033100    6.604600   -3.157900
 H   -4.085000    5.154300    1.072700
 H   -2.342000    3.791100    2.171800
 H   -0.801600   -1.237300    4.608900
 H    1.544100   -2.413000    4.917900
 H    5.185500   -4.438300    1.366300
 H    7.431000   -5.297300    0.751200
 H   13.541400   -2.831800   -1.088400
 H   12.489200   -0.609300   -1.471300
 H    9.077800   -1.681300    0.626100
 H   13.359100   -5.163900   -0.064100
 H   12.014700   -6.798300    1.229000
 H    9.788200   -6.185100    2.133600
 H    9.258800   -2.177600    3.103800
 H    7.023200   -1.306500    3.698100
 H   -4.005300    0.232000    0.393400
 H   -5.698900    1.592000   -0.753100
 H   -7.458000    2.338100    0.372800
 H  -10.953500    3.059800   -1.736500
 C  -11.056900   -1.084200   -3.644300
 C   -9.843200   -1.137500   -4.374700
 C   -8.725900   -0.415100   -3.857000
 C   -7.476600   -0.418600   -4.555400
 C   -7.370600   -1.195700   -5.693600
 C   -8.471800   -1.925200   -6.194400
 C   -9.694700   -1.886500   -5.565200
 C   -6.321300    0.379200   -4.082600
 C   -6.405700    1.776000   -3.962800
 C   -5.314000    2.524300   -3.539700
 C   -4.106200    1.888800   -3.195600
 C   -3.010900    2.609100   -2.642300
 C   -2.082100    3.172300   -2.084400
 C   -1.000200    3.758800   -1.402100
 C   -0.606900    5.089300   -1.353500
 C    0.536700    5.298700   -0.557700
 C    1.024200    4.131100    0.013300
 C    2.152500    3.939000    0.833000
 C    3.134800    3.696400    1.516900
 C    4.299500    3.301100    2.233600
 C    4.270400    2.129100    3.011700
 C    5.423900    1.656100    3.622200
 C    6.646100    2.326200    3.467200
 C    7.864400    1.823600    4.145900
 C    9.051500    1.480700    3.422600
 C   10.230400    1.081500    4.123100
 C   11.381600    0.774900    3.355600
 C   11.325400    0.804900    1.988400
 N   10.173000    1.110300    1.329600
 C    9.091300    1.447200    2.013200
 C   10.203600    0.987700    5.534100
 C    9.038000    1.263900    6.210400
 C    7.877800    1.680900    5.520900
 C    6.671300    3.507900    2.708000
 C    5.516000    3.999000    2.111100
 S    0.053100    2.766500   -0.443900
 C   -4.014700    0.491900   -3.339600
 C   -5.103000   -0.246900   -3.782500
 C   -8.883700    0.221200   -2.608700
 N  -10.018900    0.207400   -1.930400
 C  -11.114300   -0.412400   -2.453100
 H  -11.945500   -1.594000   -4.019500
 H   -6.422000   -1.221000   -6.234100
 H   -8.346600   -2.513900   -7.105700
 H  -10.550500   -2.435200   -5.963100
 H   -7.337900    2.286800   -4.216900
 H   -5.396400    3.608800   -3.457300
 H   -1.139700    5.876600   -1.887100
 H    1.006000    6.269300   -0.396700
 H    3.334100    1.578800    3.112700
 H    5.379200    0.738300    4.213000
 H   12.313200    0.498100    3.851500
 H   12.191500    0.564800    1.371100
 H    8.191700    1.674700    1.439600
 H   11.106700    0.685800    6.068000
 H    9.005900    1.179800    7.298700
 H    6.978800    1.927900    6.089600
 H    7.608000    4.059500    2.595300
 H    5.555000    4.916500    1.521600
 H   -3.083700   -0.012000   -3.077600
 H   -5.011500   -1.331500   -3.876600
 H   -8.034700    0.725800   -2.147100
 H  -12.029900   -0.365200   -1.862800
 C  -12.635500   -2.180300    1.360700
 C  -11.898100   -3.380400    1.199900
 C  -10.566000   -3.279000    0.697200
 C   -9.779100   -4.457900    0.489100
 C  -10.326400   -5.677300    0.838000
 C  -11.638800   -5.774000    1.352300
 C  -12.421100   -4.654800    1.522200
 C   -8.409000   -4.348900   -0.057700
 C   -8.163000   -3.655900   -1.254100
 C   -6.865700   -3.420600   -1.686700
 C   -5.773300   -3.891200   -0.936600
 C   -4.437100   -3.549900   -1.292700
 C   -3.284200   -3.231100   -1.528700
 C   -1.955800   -2.838000   -1.778900
 C   -0.929400   -3.581400   -2.334100
 C    0.278300   -2.862200   -2.438300
 C    0.179500   -1.569400   -1.956300
 C    1.183400   -0.587700   -1.883700
 C    2.041100    0.274600   -1.810000
 C    3.048300    1.274100   -1.721700
 C    4.054700    1.188600   -0.746200
 C    5.034500    2.164400   -0.663400
 C    5.027600    3.270100   -1.526900
 C    5.988200    4.377900   -1.354700
 C    7.383600    4.155900   -1.123600
 C    8.244700    5.257600   -0.830400
 C    9.606900    4.979300   -0.556900
 C   10.059500    3.688700   -0.569000
 N    9.235600    2.649200   -0.883600
 C    7.966800    2.871400   -1.177100
 C    7.721500    6.571200   -0.821000
 C    6.387700    6.772500   -1.091700
 C    5.527900    5.683700   -1.347500
 C    4.016800    3.355000   -2.496700
 C    3.045000    2.371500   -2.600500
 S   -1.418600   -1.237600   -1.368000
 C   -6.019600   -4.665900    0.211000
 C   -7.321400   -4.887700    0.643400
 C  -10.061400   -1.985900    0.446100
 N  -10.786000   -0.891500    0.590900
 C  -12.068500   -0.975200    1.042200
 H  -13.659400   -2.212900    1.736300
 H   -9.741600   -6.587600    0.689400
 H  -12.037300   -6.759200    1.603900
 H  -13.440200   -4.733800    1.905400
 H   -9.001400   -3.288200   -1.850100
 H   -6.692100   -2.854500   -2.603600
 H   -1.061000   -4.616200   -2.649100
 H    1.207000   -3.266700   -2.839200
 H    4.048200    0.370300   -0.024800
 H    5.774800    2.096600    0.133100
 H   10.296200    5.792200   -0.323800
 H   11.094100    3.434800   -0.334000
 H    7.371000    2.003900   -1.463800
 H    8.383800    7.409000   -0.595200
 H    5.975600    7.783700   -1.085200
 H    4.463000    5.872600   -1.497700
 H    4.000000    4.202000   -3.185600
 H    2.266100    2.447000   -3.361000
 H   -5.175300   -5.051400    0.785800
 H   -7.497600   -5.444400    1.566700
 H   -9.030300   -1.853900    0.116600
 H  -12.612800   -0.034700    1.139700
