194

Pd 0.429400 5.555500 0.082100
Pd -0.437800 -6.910800 -0.009900
C 4.253600 1.512800 1.722500
C 3.879800 2.206200 2.640800
C 3.522600 3.090000 3.679300
C 4.043700 2.951500 4.950500
C 3.776600 3.901100 5.943900
C 3.011100 5.010200 5.682200
C 2.456000 5.192100 4.402500
C 1.687700 6.322200 4.041300
C 1.175300 6.426100 2.779700
N 1.344800 5.449400 1.853400
C 2.067800 4.385300 2.149400
C 2.682300 4.208800 3.397000
H 4.685700 2.112800 5.170300
H 4.203900 3.765800 6.926200
H 2.835600 5.753800 6.443600
H 1.517500 7.101900 4.766500
H 0.603500 7.291600 2.459000
H 2.177000 3.620600 1.382100
C 4.770400 0.780700 0.630600
C 5.691600 1.434600 -0.208900
C 6.279300 0.783700 -1.270200
C 5.925800 -0.539900 -1.497100
N 6.360800 -1.401100 -2.468800
C 5.751000 -2.611700 -2.303700
C 5.893600 -3.782700 -3.036700
C 5.159100 -4.880300 -2.647100
C 4.276100 -4.830300 -1.554700
C 4.125700 -3.652100 -0.828400
C 4.868700 -2.541500 -1.195600
C 4.984600 -1.205300 -0.672000
C 4.407200 -0.543000 0.401400
H 5.951000 2.460900 0.001600
H 6.999700 1.284600 -1.897500
H 7.063300 -1.194800 -3.159700
H 6.561800 -3.835500 -3.882000
H 5.244300 -5.793700 -3.214800
H 3.479900 -3.609700 0.033500
H 3.703000 -1.036300 1.051600
C 3.523700 -6.036600 -1.196300
C 4.104500 -7.308600 -1.266000
C 3.355400 -8.426800 -0.945500
C 2.034600 -8.264000 -0.562700
N 1.479300 -7.052700 -0.489600
C 2.191600 -5.967600 -0.789700
H 5.139000 -7.412700 -1.553000
H 3.788900 -9.412600 -0.990300
H 1.403100 -9.111400 -0.305100
H 1.670200 -5.015000 -0.719900
C -1.489900 1.893600 4.152400
C -2.354900 2.630100 3.736200
C -3.326000 3.565700 3.325200
C -4.601100 3.555800 3.854900
C -5.522100 4.558700 3.529600
C -5.182200 5.595100 2.696100
C -3.895600 5.645600 2.129700
C -3.454900 6.695300 1.291900
C -2.191800 6.672100 0.773100
N -1.340300 5.641200 1.002700
C -1.711300 4.649300 1.791000
C -2.965200 4.605600 2.416400
H -4.879500 2.777500 4.548200
H -6.509400 4.524300 3.965200
H -5.886700 6.381400 2.474900
H -4.120700 7.515100 1.073800
H -1.810400 7.473700 0.148100
H -1.002900 3.837400 1.947200
C -0.454700 1.113000 4.713100
C 0.437600 1.755600 5.591600
C 1.448500 1.062000 6.218100
C 1.570600 -0.294500 5.947300
N 2.475100 -1.199900 6.434400
C 2.213700 -2.429400 5.900800
C 2.854700 -3.642600 6.115400
C 2.377700 -4.750000 5.450200
C 1.287900 -4.670100 4.566100
C 0.654100 -3.450700 4.343500
C 1.109800 -2.328200 5.016300
C 0.691700 -0.950800 5.049400
C -0.330300 -0.244400 4.432500
H 0.308500 2.809200 5.786900
H 2.116300 1.556400 6.905800
H 3.183600 -1.004800 7.122400
H 3.696800 -3.719500 6.785300
H 2.873600 -5.697600 5.591500
H -0.205300 -3.381500 3.696700
H -1.020400 -0.728300 3.760500
C 0.833600 -5.888900 3.889700
C 0.808700 -7.124700 4.547400
C 0.399100 -8.258500 3.868700
C 0.022400 -8.147800 2.540700
N 0.039300 -6.970700 1.912300
C 0.425900 -5.870400 2.556200
H 1.092700 -7.187200 5.586100
H 0.370600 -9.216500 4.361900
H -0.303100 -9.009900 1.962700
H 0.426500 -4.949000 1.977400
C -3.917400 2.104600 -1.608800
C -3.450300 2.752200 -2.517800
C -2.973700 3.592400 -3.544500
C -3.508400 3.545200 -4.816700
C -3.111700 4.462100 -5.797300
C -2.199900 5.450600 -5.521500
C -1.625500 5.536100 -4.240300
C -0.708000 6.543700 -3.864700
C -0.186700 6.558000 -2.602500
N -0.490500 5.601600 -1.689400
C -1.353900 4.652200 -1.999100
C -1.986500 4.579900 -3.248000
H -4.260300 2.806600 -5.047000
H -3.553200 4.401000 -6.780700
H -1.922600 6.173200 -6.272800
H -0.431100 7.302200 -4.579400
H 0.499500 7.331300 -2.270800
H -1.568400 3.899500 -1.242200
C -4.531000 1.434900 -0.527100
C -5.352900 2.197300 0.324000
C -6.025500 1.618100 1.376300
C -5.859100 0.254900 1.582400
N -6.409700 -0.552300 2.541700
C -5.973600 -1.833100 2.357100
C -6.277700 -2.984200 3.072400
C -5.702300 -4.167000 2.664800
C -4.820300 -4.223100 1.571900
C -4.507700 -3.066200 0.863400
C -5.089800 -1.869100 1.248600
C -5.019000 -0.521900 0.745600
C -4.355100 0.070200 -0.318700
H -5.467200 3.252900 0.129600
H -6.669600 2.204400 2.012400
H -7.076900 -0.261200 3.237000
H -6.947200 -2.956800 3.917900
H -5.913600 -5.068300 3.218700
H -3.862000 -3.100600 0.001000
H -3.726000 -0.505900 -0.977600
C -4.241700 -5.516300 1.194300
C -4.992500 -6.696900 1.245900
C -4.404800 -7.902800 0.907800
C -3.073900 -7.918200 0.525600
N -2.356700 -6.794200 0.469700
C -2.912500 -5.625800 0.787000
H -6.031700 -6.661400 1.532800
H -4.970300 -8.819900 0.938600
H -2.565300 -8.840800 0.254600
H -2.264600 -4.753400 0.730600
C 1.825000 1.721900 -4.043400
C 2.783500 2.324600 -3.617000
C 3.874800 3.110100 -3.193700
C 5.136600 2.930800 -3.724900
C 6.187800 3.791100 -3.386100
C 5.994700 4.852400 -2.537100
C 4.727000 5.072900 -1.968500
C 4.435800 6.161300 -1.115000
C 3.181300 6.306400 -0.595200
N 2.194900 5.407400 -0.839000
C 2.425200 4.385200 -1.642100
C 3.661300 4.176800 -2.269300
H 5.304800 2.131600 -4.429800
H 7.161100 3.626300 -3.823500
H 6.801500 5.529700 -2.305300
H 5.208900 6.877300 -0.885600
H 2.914500 7.144100 0.041800
H 1.610800 3.682100 -1.809400
C 0.692100 1.100500 -4.614100
C -0.102100 1.873300 -5.481900
C -1.198700 1.335400 -6.117400
C -1.507400 0.005000 -5.866500
N -2.527800 -0.759400 -6.366000
C -2.439300 -2.021000 -5.851100
C -3.241300 -3.130900 -6.083200
C -2.922300 -4.303300 -5.435200
C -1.832900 -4.387800 -4.551100
C -1.037000 -3.271000 -4.311000
C -1.332700 -2.086500 -4.966400
C -0.728300 -0.779800 -4.979500
C 0.381000 -0.230600 -4.353500
H 0.171600 2.901700 -5.661700
H -1.791100 1.927500 -6.796900
H -3.202000 -0.458000 -7.050100
H -4.085200 -3.080800 -6.753300
H -3.544100 -5.171200 -5.590200
H -0.176900 -3.330800 -3.664200
H 0.997000 -0.815300 -3.689600
C -1.552000 -5.667500 -3.893100
C -1.697100 -6.885100 -4.568700
C -1.448700 -8.074400 -3.906900
C -1.061600 -8.036100 -2.577900
N -0.916600 -6.877100 -1.932300
C -1.147100 -5.724800 -2.559800
H -1.986000 -6.892700 -5.607900
H -1.552200 -9.019900 -4.414000
H -0.858800 -8.943100 -2.012800
H -1.021200 -4.820600 -1.967600
