1368
been cleaning
Pd 10.44 1.545 17.303
Pd 18.577 -4.742 7.076
Pd 16.686 9.396 6.849
Pd 1.643 -10.434 17.402
Pd -1.232 10.587 17.415
Pd 9.601 -16.487 6.961
Pd 18.484 -4.782 -7.758
Pd 16.424 9.437 -7.949
Pd 4.776 18.175 6.78
Pd -4.809 -18.332 7.204
Pd -9.92 -1.206 17.645
Pd -9.586 16.381 7.061
Pd 9.366 -16.202 -7.805
Pd -5.049 -18.563 -7.527
Pd 1.097 -10.32 -17.985
Pd -16.787 -9.755 -7.192
Pd -10.569 -1.511 -17.345
Pd 10.289 1.197 -18.198
Pd -18.679 4.517 -6.897
Pd -16.493 -9.491 7.569
Pd -1.497 10.122 -18.008
Pd -9.675 16.222 -7.63
Pd -18.655 4.816 7.737
Pd 4.601 18.191 -7.998
H -3.125 -17.59 13.69
C -2.991 -16.579 13.318
C -2.543 -13.952 12.52
C -3.437 -16.173 12.066
C -2.303 -15.675 14.153
C -2.035 -14.348 13.771
C -3.232 -14.85 11.672
H -1.947 -16.048 15.118
H -3.581 -14.473 10.719
H -2.41 -12.926 12.185
C -1.217 -13.439 14.62
N 0.388 -11.792 16.195
C -1.325 -13.377 16.006
C -0.24 -12.597 14.091
C 0.537 -11.78 14.929
C -0.481 -12.54 16.753
H -2.075 -13.961 16.541
H -0.057 -12.571 13.021
H 1.258 -11.1 14.492
H -0.59 -12.49 17.837
N -4.041 -17.152 11.128
C -4.416 -18.481 11.398
H -4.381 -18.865 12.406
C -4.776 -19.065 10.203
H -5.122 -20.052 9.944
C -4.332 -16.931 9.826
H -4.293 -15.983 9.313
N -4.602 -18.104 9.235
H 6.085 -6.349 20.689
C 5.927 -5.808 19.759
C 5.649 -4.294 17.451
C 4.988 -6.213 18.811
C 6.723 -4.644 19.544
C 6.61 -3.849 18.386
C 4.85 -5.451 17.653
H 7.428 -4.363 20.331
H 4.146 -5.709 16.874
H 5.515 -3.74 16.524
C 7.433 -2.61 18.147
N 8.932 -0.284 17.63
C 6.911 -1.472 17.533
C 8.778 -2.468 18.497
C 9.5 -1.276 18.215
C 7.705 -0.336 17.296
H 5.863 -1.435 17.25
H 9.311 -3.279 18.994
H 10.55 -1.204 18.494
H 7.279 0.54 16.823
N 4.173 -7.457 18.995
C 4.224 -8.363 20.07
H 4.874 -8.18 20.912
C 3.361 -9.403 19.789
H 3.093 -10.299 20.324
C 3.213 -7.919 18.155
H 2.838 -7.416 17.278
N 2.832 -9.146 18.546
H -7.07 4.053 21.027
C -6.624 4.137 20.04
C -5.41 4.5 17.565
C -6.916 3.25 19.006
C -5.732 5.217 19.82
C -5.112 5.436 18.576
C -6.299 3.424 17.769
H -5.549 5.905 20.649
H -6.459 2.747 16.941
H -4.933 4.596 16.591
C -4.219 6.6 18.308
N -2.591 8.798 17.733
C -4.307 7.328 17.125
C -3.241 7.073 19.183
C -2.439 8.189 18.849
C -3.46 8.417 16.886
H -5.063 7.088 16.383
H -3.081 6.594 20.148
H -1.684 8.54 19.552
H -3.551 8.982 15.966
N -7.864 2.121 19.198
C -8.521 1.738 20.378
H -8.369 2.287 21.295
C -9.306 0.644 20.083
H -9.994 0.061 20.674
C -8.323 1.305 18.222
H -8.145 1.408 17.163
N -9.038 0.312 18.774
H 14.858 6.563 15.794
C 14.428 6.304 14.83
C 13.434 5.755 12.291
C 13.48 5.294 14.681
C 14.879 7.033 13.698
C 14.389 6.785 12.402
C 12.982 5.018 13.407
H 15.624 7.817 13.859
H 12.242 4.252 13.225
H 13.037 5.5 11.31
C 14.845 7.533 11.195
N 15.675 8.697 8.8
C 13.961 7.969 10.21
C 16.179 7.814 10.916
C 16.551 8.41 9.693
C 14.433 8.556 9.028
H 12.89 7.849 10.342
H 16.967 7.547 11.619
H 17.608 8.581 9.488
H 13.74 8.852 8.25
N 12.961 4.533 15.85
C 13.244 4.728 17.213
H 13.956 5.479 17.52
C 12.48 3.833 17.935
H 12.392 3.625 18.988
C 12.145 3.458 15.782
H 11.838 2.943 14.884
N 11.741 3.125 17.02
H 1.211 16.281 15.268
C 1.674 15.617 14.545
C 2.879 14.049 12.594
C 1.778 14.246 14.755
C 2.151 16.191 13.341
C 2.759 15.43 12.321
C 2.388 13.458 13.784
H 2.027 17.269 13.228
H 2.545 12.396 13.925
H 3.395 13.403 11.886
C 3.242 16.045 11.037
N 4.122 17.208 8.628
C 3.346 15.346 9.835
C 3.638 17.376 10.922
C 4.07 17.91 9.693
C 3.807 15.972 8.66
H 3.081 14.295 9.779
H 3.655 18.036 11.789
H 4.393 18.951 9.653
H 3.916 15.395 7.747
N 1.151 13.626 15.948
C 0.757 14.264 17.137
H 1.029 15.293 17.32
C 0.031 13.356 17.874
H -0.48 13.414 18.821
C 0.837 12.318 16.092
H 1.106 11.514 15.422
N -0.007 12.201 17.129
H 19.484 11.354 0.906
C 18.655 10.738 0.57
C 16.581 9.205 -0.46
C 17.823 10.057 1.457
C 18.443 10.646 -0.831
C 17.396 9.89 -1.386
C 16.787 9.281 0.94
H 19.118 11.203 -1.485
H 16.107 8.727 1.573
H 15.768 8.585 -0.83
C 17.134 9.827 -2.857
N 16.588 9.678 -5.601
C 15.863 10.005 -3.397
C 18.117 9.593 -3.818
C 17.796 9.524 -5.195
C 15.646 9.924 -4.782
H 15.022 10.234 -2.748
H 19.157 9.448 -3.525
H 18.584 9.324 -5.92
H 14.652 10.069 -5.189
N 17.994 10.192 2.935
C 18.923 10.993 3.621
H 19.661 11.566 3.08
C 18.67 10.873 4.971
H 19.137 11.296 5.845
C 17.292 9.526 3.884
H 16.576 8.737 3.712
N 17.596 10.025 5.093
H 6.56 21.19 0.891
C 6.048 20.302 0.535
C 4.733 18.099 -0.533
C 5.53 19.342 1.401
C 5.894 20.155 -0.871
C 5.229 19.054 -1.446
C 4.875 18.236 0.866
H 6.295 20.946 -1.507
H 4.469 17.444 1.482
H 4.231 17.21 -0.911
C 5.036 18.888 -2.922
N 4.646 18.471 -5.665
C 3.872 18.343 -3.459
C 5.979 19.237 -3.889
C 5.738 19.01 -5.266
C 3.732 18.149 -4.84
H 3.038 18.079 -2.814
H 6.928 19.689 -3.604
H 6.496 19.29 -5.996
H 2.823 17.715 -5.234
N 5.667 19.472 2.88
C 6.441 20.403 3.596
H 7.035 21.137 3.074
C 6.288 20.135 4.94
H 6.711 20.568 5.833
C 5.058 18.689 3.8
H 4.387 17.871 3.592
N 5.397 19.092 5.032
H 15.628 8.298 -14.654
C 15.036 7.512 -14.194
C 13.476 5.449 -13.174
C 14.975 7.334 -12.813
C 14.311 6.649 -15.06
C 13.503 5.603 -14.575
C 14.197 6.295 -12.303
H 14.381 6.831 -16.136
H 14.116 6.095 -11.244
H 12.894 4.639 -12.737
C 12.716 4.691 -15.459
N 11.263 2.846 -16.972
C 11.409 4.31 -15.157
C 13.201 4.13 -16.638
C 12.424 3.21 -17.378
C 10.722 3.386 -15.957
H 10.891 4.743 -14.306
H 14.194 4.386 -17.01
H 12.824 2.8 -18.306
H 9.698 3.111 -15.728
N 15.682 8.253 -11.877
C 16.503 9.35 -12.187
H 16.736 9.586 -13.215
C 16.882 9.944 -10.999
H 17.511 10.786 -10.766
C 15.69 8.142 -10.53
H 15.268 7.335 -9.95
N 16.281 9.225 -9.997
H 3.198 17.314 -14.515
C 3.154 16.29 -14.154
C 2.937 13.635 -13.365
C 3.629 15.921 -12.899
C 2.545 15.328 -14.998
C 2.395 13.979 -14.621
C 3.539 14.587 -12.51
H 2.154 15.676 -15.956
H 3.93 14.234 -11.565
H 2.897 12.601 -13.029
C 1.64 12.99 -15.456
N -0.009 11.291 -16.941
C 0.836 12.008 -14.882
C 1.599 12.99 -16.852
C 0.751 12.107 -17.563
C 0.038 11.175 -15.675
H 0.751 11.919 -13.804
H 2.192 13.703 -17.426
H 0.693 12.175 -18.648
H -0.639 10.472 -15.198
N 4.135 16.945 -11.947
C 4.46 18.285 -12.219
H 4.461 18.652 -13.234
C 4.732 18.901 -11.017
H 5.014 19.908 -10.752
C 4.363 16.754 -10.628
H 4.312 15.816 -10.098
N 4.562 17.947 -10.044
H 7.2 -3.925 -21.615
C 6.784 -4.031 -20.616
C 5.634 -4.463 -18.124
C 7.116 -3.167 -19.575
C 5.874 -5.107 -20.402
C 5.263 -5.353 -19.155
C 6.541 -3.39 -18.323
H 5.643 -5.747 -21.257
H 6.76 -2.766 -17.469
H 5.228 -4.607 -17.125
C 4.285 -6.473 -18.921
N 2.463 -8.577 -18.411
C 3.186 -6.361 -18.07
C 4.373 -7.728 -19.516
C 3.435 -8.748 -19.228
C 2.305 -7.441 -17.854
H 2.981 -5.422 -17.564
H 5.182 -7.963 -20.208
H 3.555 -9.725 -19.696
H 1.467 -7.323 -17.176
N 8.073 -2.032 -19.772
C 8.73 -1.651 -20.958
H 8.551 -2.187 -21.879
C 9.533 -0.565 -20.669
H 10.187 0.046 -21.271
C 8.453 -1.141 -18.827
H 8.087 -1.097 -17.814
N 9.392 -0.32 -19.324
H -6.684 6.549 -20.654
C -6.313 5.869 -19.893
C -5.505 4.013 -17.989
C -5.141 6.114 -19.181
C -7.085 4.705 -19.631
C -6.722 3.755 -18.656
C -4.725 5.171 -18.241
H -8.005 4.573 -20.205
H -3.806 5.279 -17.681
H -5.135 3.295 -17.258
C -7.581 2.57 -18.321
N -9.198 0.379 -17.642
C -7.752 2.114 -17.014
C -8.3 1.828 -19.259
C -9.101 0.725 -18.873
C -8.581 1.016 -16.729
H -7.257 2.615 -16.188
H -8.245 2.072 -20.32
H -9.625 0.151 -19.635
H -8.699 0.668 -15.71
N -4.374 7.383 -19.371
C -4.654 8.435 -20.265
H -5.476 8.358 -20.961
C -3.76 9.456 -20.015
H -3.64 10.447 -20.423
C -3.287 7.767 -18.663
H -2.798 7.192 -17.892
N -2.919 9.005 -19.028
H -2.919 -15.649 -16.402
C -2.622 -15.292 -15.421
C -1.959 -14.514 -12.839
C -1.717 -14.247 -15.251
C -3.193 -15.943 -14.293
C -2.891 -15.564 -12.972
C -1.376 -13.863 -13.955
H -3.9 -16.755 -14.479
H -0.671 -13.069 -13.755
H -1.66 -14.194 -11.842
C -3.502 -16.221 -11.774
N -4.487 -17.413 -9.446
C -3.985 -15.494 -10.686
C -3.643 -17.6 -11.625
C -4.158 -18.158 -10.433
C -4.484 -16.143 -9.545
H -4.003 -14.408 -10.716
H -3.349 -18.278 -12.427
H -4.264 -19.239 -10.35
H -4.878 -15.574 -8.709
N -1.168 -13.501 -16.423
C -1.446 -13.711 -17.785
H -2.069 -14.536 -18.095
C -0.799 -12.731 -18.507
H -0.721 -12.524 -19.561
C -0.245 -12.508 -16.379
H 0.316 -12.197 -15.511
N -0.163 -11.928 -17.591
H -14.926 -6.591 -15.962
C -14.421 -6.457 -15.01
C -13.261 -6.222 -12.492
C -13.334 -5.603 -14.855
C -14.924 -7.185 -13.899
C -14.366 -7.087 -12.607
C -12.749 -5.49 -13.593
H -15.778 -7.845 -14.073
H -11.897 -4.854 -13.405
H -12.789 -6.089 -11.521
C -14.923 -7.816 -11.421
N -15.981 -8.998 -9.115
C -16.287 -7.994 -11.212
C -14.135 -8.35 -10.4
C -14.715 -8.94 -9.257
C -16.767 -8.604 -10.039
H -17.02 -7.638 -11.935
H -13.051 -8.32 -10.473
H -14.081 -9.323 -8.467
H -17.841 -8.702 -9.885
N -12.826 -4.779 -15.992
C -13.22 -4.828 -17.343
H -13.927 -5.571 -17.679
C -12.552 -3.823 -18.015
H -12.546 -3.505 -19.045
C -11.866 -3.832 -15.915
H -11.29 -3.583 -15.038
N -11.778 -3.177 -17.082
H -7.161 -21.208 -1.576
C -6.429 -20.474 -1.251
C -4.602 -18.64 -0.239
C -5.631 -19.772 -2.149
C -6.313 -20.243 0.151
C -5.404 -19.316 0.705
C -4.711 -18.855 -1.639
H -6.975 -20.818 0.804
H -4.039 -18.295 -2.275
H -3.845 -17.938 0.106
C -5.287 -19.063 2.187
N -5.036 -18.583 4.968
C -4.888 -17.843 2.734
C -5.569 -20.012 3.166
C -5.441 -19.719 4.544
C -4.776 -17.657 4.129
H -4.672 -16.997 2.089
H -5.893 -21.017 2.895
H -5.687 -20.491 5.272
H -4.461 -16.695 4.517
N -5.773 -19.954 -3.628
C -6.596 -20.867 -4.318
H -7.195 -21.58 -3.773
C -6.467 -20.621 -5.671
H -6.929 -21.047 -6.548
C -5.127 -19.239 -4.577
H -4.402 -18.462 -4.398
N -5.557 -19.602 -5.797
H -19.232 -11.915 -1.147
C -18.476 -11.201 -0.833
C -16.588 -9.41 0.154
C -17.731 -10.451 -1.741
C -18.274 -11.045 0.563
C -17.323 -10.153 1.098
C -16.786 -9.55 -1.246
H -18.885 -11.653 1.235
H -16.181 -8.937 -1.899
H -15.856 -8.684 0.504
C -17.126 -9.996 2.574
N -16.791 -9.717 5.341
C -18.186 -9.818 3.457
C -15.879 -10.019 3.202
C -15.76 -9.877 4.606
C -17.963 -9.68 4.839
H -19.214 -9.775 3.097
H -14.979 -10.174 2.614
H -14.783 -9.905 5.072
H -18.808 -9.527 5.509
N -17.893 -10.642 -3.215
C -18.7 -11.589 -3.871
H -19.337 -12.255 -3.308
C -18.478 -11.467 -5.226
H -18.88 -11.982 -6.083
C -17.332 -9.884 -4.19
H -16.774 -8.972 -4.042
N -17.546 -10.468 -5.382
H -16.225 -7.469 14.06
C -15.291 -7.081 13.659
C -12.89 -6.014 12.749
C -14.853 -7.395 12.378
C -14.524 -6.195 14.472
C -13.297 -5.634 14.047
C -13.651 -6.865 11.923
H -14.929 -5.953 15.457
H -13.239 -7.13 10.958
H -11.938 -5.67 12.355
C -12.452 -4.708 14.885
N -10.898 -2.888 16.392
C -11.479 -3.873 14.34
C -12.527 -4.59 16.27
C -11.73 -3.661 16.978
C -10.683 -3.041 15.144
H -11.332 -3.816 13.267
H -13.224 -5.192 16.85
H -11.863 -3.554 18.053
H -9.92 -2.43 14.674
N -15.609 -8.29 11.473
C -16.58 -9.248 11.794
H -16.882 -9.393 12.821
C -16.958 -9.867 10.618
H -17.674 -10.64 10.391
C -15.523 -8.26 10.124
H -14.985 -7.525 9.543
N -16.22 -9.283 9.61
H 6.166 5.618 20.822
C 5.778 5.721 19.813
C 4.664 6.115 17.304
C 6.351 5.069 18.726
C 4.647 6.566 19.636
C 4.049 6.783 18.381
C 5.793 5.273 17.466
H 4.232 7.047 20.524
H 6.187 4.803 16.579
H 4.267 6.255 16.302
C 2.842 7.654 18.186
N 0.572 9.284 17.781
C 1.794 7.321 17.329
C 2.637 8.863 18.845
C 1.479 9.639 18.61
C 0.681 8.171 17.165
H 1.799 6.371 16.801
H 3.367 9.232 19.566
H 1.34 10.564 19.169
H -0.139 7.864 16.522
N 7.524 4.156 18.893
C 8.153 3.774 20.093
H 7.804 4.155 21.041
C 9.169 2.895 19.781
H 9.878 2.346 20.38
C 8.179 3.51 17.899
H 7.945 3.566 16.848
N 9.181 2.781 18.412
H -5.222 -4.9 20.683
C -5.112 -5.377 19.716
C -4.655 -6.681 17.331
C -5.978 -5.124 18.653
C -4.02 -6.261 19.582
C -3.733 -6.925 18.382
C -5.756 -5.781 17.45
H -3.39 -6.403 20.46
H -6.418 -5.666 16.602
H -4.546 -7.221 16.392
C -2.503 -7.777 18.23
N -0.117 -9.245 17.891
C -1.924 -8.037 16.994
C -1.786 -8.345 19.286
C -0.583 -9.058 19.067
C -0.73 -8.765 16.883
H -2.379 -7.685 16.076
H -2.143 -8.271 20.314
H -0.077 -9.52 19.915
H -0.343 -8.992 15.895
N -7.08 -4.139 18.845
C -7.511 -3.653 20.088
H -7.108 -4.046 21.005
C -8.469 -2.71 19.86
H -9.067 -2.119 20.525
C -7.879 -3.57 17.905
H -7.892 -3.801 16.85
N -8.607 -2.606 18.499
H -6.602 14.545 15.927
C -6.339 14.126 14.959
C -5.768 13.161 12.409
C -5.292 13.225 14.794
C -7.092 14.551 13.835
C -6.828 14.078 12.535
C -5.007 12.739 13.518
H -7.901 15.266 14.001
H -4.22 12.022 13.329
H -5.511 12.776 11.424
C -7.591 14.527 11.339
N -8.815 15.359 8.978
C -8.086 13.64 10.385
C -7.828 15.866 11.045
C -8.453 16.238 9.84
C -8.703 14.115 9.218
H -7.995 12.568 10.534
H -7.505 16.654 11.724
H -8.592 17.295 9.621
H -9.06 13.421 8.467
N -4.479 12.763 15.949
C -4.724 12.953 17.32
H -5.593 13.503 17.649
C -3.731 12.298 18.02
H -3.546 12.147 19.072
C -3.334 12.055 15.858
H -2.845 11.755 14.945
N -2.874 11.774 17.082
H -17.312 3.848 14.289
C -16.393 3.495 13.834
C -14.007 2.528 12.826
C -16.155 3.578 12.466
C -15.437 2.913 14.693
C -14.221 2.405 14.215
C -14.957 3.094 11.955
H -15.686 2.846 15.753
H -14.707 3.127 10.906
H -13.072 2.178 12.396
C -13.222 1.742 15.096
N -11.387 0.359 16.69
C -13.031 2.005 16.448
C -12.376 0.763 14.615
C -11.442 0.153 15.438
C -12.098 1.276 17.217
H -13.627 2.76 16.95
H -12.445 0.418 13.596
H -10.772 -0.56 15.014
H -12.018 1.443 18.288
N -17.186 4.135 11.559
C -18.429 4.677 11.921
H -18.695 4.806 12.959
C -19.115 4.956 10.764
H -20.085 5.374 10.565
C -17.104 4.226 10.215
H -16.245 3.974 9.613
N -18.286 4.629 9.725
H -11.794 19.1 1.183
C -11.122 18.32 0.836
C -9.448 16.369 -0.221
C -10.367 17.54 1.71
C -11.033 18.119 -0.566
C -10.204 17.133 -1.134
C -9.524 16.563 1.18
H -11.648 18.752 -1.211
H -8.908 15.929 1.801
H -8.767 15.609 -0.6
C -10.125 16.893 -2.607
N -9.909 16.395 -5.352
C -10.117 15.612 -3.156
C -10.04 17.907 -3.56
C -9.93 17.608 -4.937
C -10.007 15.42 -4.541
H -10.214 14.74 -2.515
H -10.04 18.955 -3.26
H -9.852 18.423 -5.654
H -9.998 14.419 -4.956
N -10.487 17.702 3.188
C -11.306 18.603 3.891
H -11.905 19.328 3.362
C -11.158 18.346 5.238
H -11.583 18.793 6.12
C -9.78 17.025 4.123
H -8.968 16.34 3.935
N -10.278 17.297 5.341
H -21.144 6.989 -1.109
C -20.537 6.193 -0.689
C -19.034 4.227 0.539
C -19.868 5.265 -1.488
C -20.438 6.143 0.723
C -19.669 5.171 1.381
C -19.112 4.272 -0.875
H -20.975 6.902 1.297
H -18.597 3.5 -1.43
H -18.463 3.413 0.987
C -19.489 5.141 2.867
N -19.048 5.014 5.623
C -18.302 4.694 3.434
C -20.435 5.551 3.811
C -20.158 5.487 5.201
C -18.146 4.628 4.816
H -17.463 4.402 2.812
H -21.414 5.923 3.505
H -20.907 5.825 5.918
H -17.214 4.26 5.23
N -19.954 5.354 -2.974
C -20.815 6.187 -3.708
H -21.526 6.823 -3.206
C -20.544 6.007 -5.041
H -20.933 6.455 -5.94
C -19.208 4.673 -3.877
H -18.421 3.97 -3.646
N -19.571 5.043 -5.116
H -8.323 15.668 -14.321
C -7.635 14.959 -13.87
C -5.803 13.118 -12.871
C -7.566 14.764 -12.494
C -6.778 14.233 -14.74
C -5.849 13.286 -14.268
C -6.642 13.845 -11.994
H -6.863 14.421 -15.813
H -6.541 13.648 -10.936
H -5.086 12.418 -12.446
C -4.946 12.513 -15.172
N -3.128 11.064 -16.763
C -4.845 11.124 -15.151
C -4.101 13.109 -16.098
C -3.211 12.337 -16.872
C -3.924 10.446 -15.979
H -5.492 10.543 -14.5
H -4.092 14.191 -16.228
H -2.542 12.846 -17.566
H -3.859 9.364 -15.942
N -8.482 15.479 -11.559
C -9.556 16.333 -11.865
H -9.779 16.584 -12.891
C -10.156 16.702 -10.677
H -10.988 17.344 -10.442
C -8.387 15.467 -10.211
H -7.587 15.026 -9.638
N -9.465 16.065 -9.676
H -15.555 2.779 -15.583
C -15.313 2.393 -14.599
C -14.836 1.5 -12.029
C -14.352 1.403 -14.4
C -16.02 2.946 -13.507
C -15.792 2.526 -12.19
C -14.116 0.947 -13.108
H -16.754 3.726 -13.718
H -13.407 0.164 -12.883
H -14.65 1.099 -11.034
C -16.498 3.103 -11.011
N -17.775 3.984 -8.709
C -15.855 3.234 -9.783
C -17.82 3.547 -11.006
C -18.423 3.985 -9.809
C -16.542 3.684 -8.66
H -14.798 3.012 -9.679
H -18.419 3.561 -11.917
H -19.455 4.339 -9.824
H -16.016 3.805 -7.716
N -13.581 0.855 -15.55
C -13.761 1.175 -16.905
H -14.529 1.867 -17.211
C -12.831 0.477 -17.634
H -12.605 0.429 -18.686
C -12.557 -0.03 -15.495
H -12.147 -0.466 -14.597
N -12.123 -0.288 -16.737
H 3.115 6.624 -21.681
C 3.533 6.514 -20.682
C 4.709 6.114 -18.201
C 3.029 7.217 -19.584
C 4.618 5.601 -20.526
C 5.22 5.357 -19.276
C 3.632 7.026 -18.344
H 4.966 5.071 -21.418
H 3.324 7.574 -17.464
H 5.175 6.02 -17.223
C 6.325 4.362 -19.07
N 8.411 2.557 -18.536
C 6.331 3.493 -17.983
C 7.44 4.213 -19.895
C 8.476 3.291 -19.584
C 7.396 2.603 -17.774
H 5.505 3.5 -17.275
H 7.56 4.827 -20.788
H 9.346 3.227 -20.233
H 7.402 1.964 -16.9
N 1.831 8.106 -19.708
C 1.202 8.523 -20.894
H 1.623 8.267 -21.855
C 0.083 9.249 -20.546
H -0.671 9.756 -21.125
C 1.16 8.705 -18.689
H 1.446 8.706 -17.648
N 0.025 9.244 -19.17
H -3.618 -6.717 -21.252
C -3.959 -6.561 -20.232
C -4.946 -6.046 -17.697
C -3.348 -7.176 -19.14
C -5.06 -5.687 -20.052
C -5.582 -5.397 -18.78
C -3.844 -6.92 -17.863
H -5.492 -5.227 -20.944
H -3.434 -7.38 -16.974
H -5.331 -5.89 -16.69
C -6.733 -4.47 -18.559
N -8.925 -2.805 -17.987
C -6.774 -3.593 -17.48
C -7.858 -4.386 -19.375
C -8.935 -3.532 -19.042
C -7.894 -2.785 -17.241
H -5.921 -3.498 -16.817
H -7.934 -4.98 -20.287
H -9.791 -3.472 -19.713
H -7.877 -2.087 -16.41
N -2.175 -8.075 -19.342
C -1.631 -8.484 -20.573
H -2.081 -8.178 -21.503
C -0.52 -9.249 -20.315
H 0.211 -9.729 -20.944
C -1.412 -8.641 -18.379
H -1.547 -8.527 -17.313
N -0.431 -9.357 -18.951
H 15.636 -2.783 -16.623
C 15.25 -2.488 -15.651
C 14.393 -1.842 -13.086
C 14.18 -1.607 -15.511
C 15.888 -3.037 -14.504
C 15.48 -2.734 -13.189
C 13.75 -1.284 -14.222
H 16.721 -3.725 -14.673
H 12.931 -0.602 -14.038
H 14.04 -1.545 -12.099
C 16.16 -3.293 -11.975
N 17.44 -4.218 -9.643
C 15.477 -3.699 -10.83
C 17.538 -3.458 -11.872
C 18.129 -3.938 -10.685
C 16.166 -4.168 -9.693
H 14.391 -3.688 -10.807
H 18.194 -3.215 -12.708
H 19.21 -4.066 -10.647
H 15.612 -4.507 -8.822
N 13.478 -1.044 -16.702
C 13.775 -1.238 -18.061
H 14.636 -1.82 -18.352
C 12.821 -0.568 -18.801
H 12.68 -0.434 -19.862
C 12.438 -0.181 -16.659
H 12.026 0.289 -15.779
N 11.95 -0.005 -17.899
H 8.274 -15.197 -14.453
C 7.399 -14.71 -14.035
C 5.109 -13.439 -13.138
C 7.128 -14.688 -12.665
C 6.528 -14.082 -14.953
C 5.376 -13.41 -14.525
C 5.971 -14.061 -12.212
H 6.787 -14.115 -16.014
H 5.691 -14.031 -11.168
H 4.2 -12.971 -12.763
C 4.484 -12.67 -15.45
N 2.651 -11.299 -17.003
C 3.978 -11.423 -15.1
C 4.086 -13.119 -16.708
C 3.156 -12.378 -17.463
C 3.07 -10.772 -15.927
H 4.298 -10.929 -14.189
H 4.471 -14.049 -17.127
H 2.854 -12.737 -18.449
H 2.7 -9.788 -15.654
N 8.081 -15.301 -11.702
C 9.259 -15.992 -12.021
H 9.552 -16.137 -13.049
C 9.847 -16.391 -10.847
H 10.739 -16.952 -10.632
C 7.956 -15.342 -10.353
H 7.129 -14.956 -9.773
N 9.052 -15.925 -9.832
H 21.435 -6.714 -1.85
C 20.586 -6.143 -1.484
C 18.479 -4.718 -0.371
C 19.691 -5.504 -2.342
C 20.421 -6.061 -0.072
C 19.363 -5.352 0.529
C 18.634 -4.787 -1.78
H 21.148 -6.587 0.552
H 17.905 -4.265 -2.384
H 17.649 -4.135 0.025
C 19.175 -5.267 2.016
N 18.774 -5.036 4.784
C 17.922 -5.346 2.623
C 20.217 -5.107 2.933
C 19.97 -5.001 4.324
C 17.778 -5.23 4.016
H 17.033 -5.534 2.027
H 21.252 -5.063 2.591
H 20.808 -4.9 5.011
H 16.802 -5.326 4.481
N 19.838 -5.596 -3.83
C 20.793 -6.337 -4.553
H 21.542 -6.917 -4.036
C 20.53 -6.177 -5.898
H 20.978 -6.585 -6.79
C 19.055 -4.986 -4.751
H 18.218 -4.34 -4.54
N 19.465 -5.312 -5.987
H 12.284 -17.624 0.962
C 11.285 -17.467 0.571
C 8.824 -17.034 -0.602
C 10.165 -17.31 1.395
C 11.175 -17.401 -0.829
C 9.948 -17.159 -1.456
C 8.923 -17.097 0.814
H 12.083 -17.524 -1.421
H 8.016 -17.01 1.4
H 7.836 -16.905 -1.046
C 9.87 -16.964 -2.93
N 9.695 -16.493 -5.672
C 9.152 -15.909 -3.475
C 10.541 -17.739 -3.878
C 10.412 -17.469 -5.261
C 9.136 -15.698 -4.854
H 8.601 -15.228 -2.835
H 11.154 -18.589 -3.573
H 10.904 -18.122 -5.982
H 8.579 -14.86 -5.257
N 10.363 -17.337 2.869
C 11.518 -17.819 3.494
H 12.313 -18.279 2.93
C 11.379 -17.618 4.833
H 12.018 -17.865 5.66
C 9.491 -16.993 3.858
H 8.449 -16.725 3.734
N 10.172 -16.984 5.02
H 17.429 -3.803 13.759
C 16.604 -3.274 13.29
C 14.437 -1.868 12.25
C 16.46 -3.192 11.909
C 15.662 -2.641 14.144
C 14.555 -1.919 13.652
C 15.37 -2.49 11.389
H 15.818 -2.735 15.222
H 15.194 -2.393 10.327
H 13.615 -1.313 11.802
C 13.578 -1.218 14.543
N 11.772 0.238 16.129
C 12.208 -1.161 14.293
C 13.95 -0.544 15.701
C 13.002 0.156 16.469
C 11.342 -0.426 15.128
H 11.779 -1.708 13.458
H 14.988 -0.536 16.035
H 13.331 0.66 17.377
H 10.274 -0.413 14.929
N 17.434 -3.841 10.985
C 18.539 -4.652 11.306
H 18.78 -4.865 12.337
C 19.118 -5.069 10.122
H 19.949 -5.718 9.896
C 17.401 -3.762 9.639
H 16.679 -3.216 9.054
N 18.4 -4.481 9.111
H 7.129 -14.218 15.962
C 6.776 -14.014 14.956
C 5.983 -13.599 12.329
C 5.656 -13.223 14.695
C 7.497 -14.601 13.897
C 7.111 -14.413 12.566
C 5.261 -13.001 13.378
H 8.348 -15.243 14.137
H 4.39 -12.419 13.115
H 5.654 -13.442 11.302
C 7.815 -15.04 11.434
N 8.979 -15.948 9.073
C 9.162 -14.871 11.155
C 7.149 -15.856 10.541
C 7.805 -16.322 9.407
C 9.694 -15.34 9.943
H 9.82 -14.373 11.865
H 6.126 -16.176 10.725
H 7.288 -17.057 8.806
H 10.752 -15.209 9.75
N 4.863 -12.66 15.816
C 4.972 -13.007 17.169
H 5.718 -13.713 17.498
C 3.969 -12.363 17.849
H 3.651 -12.388 18.876
C 3.841 -11.779 15.72
H 3.509 -11.304 14.81
N 3.319 -11.566 16.936
H -13.998 -15.753 -9.087
C -13.205 -15.312 -8.49
C -11.067 -14.345 -7.001
C -13.357 -14.103 -7.817
C -11.977 -16.028 -8.416
C -10.869 -15.567 -7.677
C -12.284 -13.621 -7.067
H -11.919 -16.977 -8.955
H -12.336 -12.696 -6.511
H -10.254 -13.921 -6.415
C -9.559 -16.296 -7.617
N -7.042 -17.571 -7.515
C -8.751 -16.324 -6.482
C -9.009 -16.998 -8.685
C -7.745 -17.619 -8.583
C -7.501 -16.972 -6.487
H -9.089 -15.864 -5.557
H -9.537 -17.077 -9.635
H -7.347 -18.156 -9.445
H -6.903 -16.978 -5.583
N -14.621 -13.308 -7.91
C -15.767 -13.603 -8.674
H -15.817 -14.506 -9.263
C -16.658 -12.558 -8.526
H -17.624 -12.347 -8.956
C -14.865 -12.125 -7.3
H -14.19 -11.604 -6.642
N -16.079 -11.671 -7.649
H -13.926 -15.82 7.475
C -13.031 -15.204 7.494
C -10.634 -13.785 7.548
C -13.079 -13.818 7.59
C -11.782 -15.872 7.427
C -10.549 -15.187 7.45
C -11.876 -13.106 7.618
H -11.798 -16.962 7.35
H -11.843 -12.029 7.698
H -9.72 -13.196 7.596
C -9.239 -15.907 7.392
N -6.803 -17.285 7.29
C -9.007 -17.1 8.069
C -8.14 -15.469 6.651
C -6.931 -16.201 6.629
C -7.769 -17.757 7.975
H -9.783 -17.556 8.684
H -8.212 -14.57 6.046
H -6.1 -15.851 6.03
H -7.625 -18.702 8.496
N -14.383 -13.095 7.63
C -15.681 -13.634 7.539
H -15.827 -14.7 7.456
C -16.578 -12.584 7.54
H -17.651 -12.53 7.448
C -14.536 -11.76 7.755
H -13.742 -11.041 7.876
N -15.835 -11.439 7.678
H 1.232 -21.154 -8.028
C 1.418 -20.103 -7.822
C 2.054 -17.442 -7.31
C 0.392 -19.185 -7.623
C 2.766 -19.677 -7.781
C 3.118 -18.337 -7.535
C 0.708 -17.853 -7.355
H 3.544 -20.428 -7.941
H -0.047 -17.102 -7.165
H 2.268 -16.393 -7.11
C 4.528 -17.867 -7.527
N 7.136 -16.886 -7.552
C 5.007 -16.967 -6.583
C 5.481 -18.27 -8.461
C 6.793 -17.761 -8.422
C 6.321 -16.496 -6.655
H 4.381 -16.644 -5.755
H 5.232 -19.001 -9.229
H 7.53 -18.135 -9.129
H 6.679 -15.81 -5.899
N -1.03 -19.602 -7.66
C -1.551 -20.902 -7.767
H -0.893 -21.75 -7.882
C -2.924 -20.808 -7.696
H -3.715 -21.538 -7.75
C -2.087 -18.762 -7.673
H -2.049 -17.686 -7.76
N -3.215 -19.473 -7.537
H 1.389 -21.009 7.712
C 1.611 -20.064 7.223
C 2.338 -17.666 6.025
C 0.612 -19.222 6.743
C 2.976 -19.687 7.115
C 3.383 -18.477 6.518
C 0.975 -18.023 6.136
H 3.718 -20.369 7.537
H 0.248 -17.345 5.711
H 2.574 -16.729 5.523
C 4.819 -18.045 6.437
N 7.476 -17.187 6.515
C 5.19 -16.702 6.48
C 5.912 -18.915 6.347
C 7.248 -18.437 6.384
C 6.539 -16.325 6.47
H 4.445 -15.921 6.6
H 5.76 -19.993 6.288
H 8.079 -19.14 6.393
H 6.805 -15.277 6.587
N -0.825 -19.556 6.916
C -1.383 -20.779 7.325
H -0.755 -21.644 7.479
C -2.744 -20.6 7.442
H -3.551 -21.258 7.72
C -1.861 -18.715 6.698
H -1.797 -17.712 6.306
N -2.994 -19.286 7.125
H 15.749 -13.833 -8.621
C 15.199 -12.938 -8.35
C 13.936 -10.562 -7.676
C 13.842 -12.962 -8.05
C 15.917 -11.716 -8.311
C 15.309 -10.498 -7.966
C 13.211 -11.769 -7.716
H 16.984 -11.743 -8.54
H 12.163 -11.718 -7.472
H 13.407 -9.648 -7.423
C 16.048 -9.208 -7.887
N 17.351 -6.744 -7.716
C 15.891 -8.333 -6.815
C 16.93 -8.749 -8.861
C 17.564 -7.493 -8.734
C 16.569 -7.108 -6.782
H 15.253 -8.6 -5.978
H 17.14 -9.346 -9.748
H 18.24 -7.153 -9.516
H 16.438 -6.437 -5.941
N 13.056 -14.226 -8.082
C 13.526 -15.532 -8.301
H 14.577 -15.718 -8.464
C 12.443 -16.385 -8.236
H 12.343 -17.455 -8.323
C 11.725 -14.325 -7.871
H 11.056 -13.512 -7.638
N 11.335 -15.597 -8.027
H 15.915 -13.899 7.766
C 15.317 -13.011 7.582
C 13.942 -10.641 7.118
C 13.936 -13.066 7.411
C 16.003 -11.765 7.519
C 15.339 -10.544 7.294
C 13.246 -11.877 7.17
H 17.084 -11.775 7.68
H 12.172 -11.844 7.046
H 13.365 -9.736 6.934
C 16.046 -9.22 7.265
N 17.318 -6.719 7.221
C 15.51 -8.074 7.848
C 17.289 -9.002 6.667
C 17.895 -7.72 6.666
C 16.188 -6.845 7.792
H 14.57 -8.121 8.391
H 17.825 -9.819 6.187
H 18.868 -7.584 6.195
H 15.763 -5.969 8.266
N 13.193 -14.363 7.496
C 13.676 -15.609 7.942
H 14.703 -15.712 8.26
C 12.627 -16.509 7.918
H 12.531 -17.543 8.208
C 11.889 -14.548 7.19
H 11.206 -13.791 6.836
N 11.56 -15.841 7.372
H 21.313 1.397 -8.082
C 20.252 1.602 -7.971
C 17.566 2.294 -7.701
C 19.298 0.594 -7.895
C 19.851 2.958 -7.918
C 18.502 3.343 -7.784
C 17.952 0.939 -7.756
H 20.634 3.718 -7.979
H 17.167 0.199 -7.68
H 16.506 2.524 -7.612
C 18.074 4.77 -7.755
N 17.191 7.423 -7.796
C 17.043 5.243 -6.948
C 18.667 5.756 -8.536
C 18.197 7.078 -8.505
C 16.644 6.589 -7.003
H 16.549 4.586 -6.238
H 19.509 5.526 -9.188
H 18.7 7.831 -9.111
H 15.856 6.948 -6.345
N 19.69 -0.835 -7.919
C 20.98 -1.391 -7.96
H 21.849 -0.756 -8.036
C 20.847 -2.763 -7.891
H 21.558 -3.573 -7.907
C 18.828 -1.871 -7.971
H 17.758 -1.809 -8.105
N 19.503 -3.018 -7.796
H 21.371 1.339 7.741
C 20.49 1.574 7.15
C 18.245 2.335 5.7
C 19.73 0.59 6.52
C 20.104 2.937 7.07
C 18.958 3.354 6.367
C 18.617 0.972 5.774
H 20.711 3.669 7.609
H 18.014 0.26 5.228
H 17.375 2.597 5.101
C 18.473 4.77 6.373
N 17.497 7.386 6.55
C 17.122 5.076 6.507
C 19.293 5.897 6.305
C 18.753 7.204 6.396
C 16.688 6.404 6.583
H 16.384 4.287 6.619
H 20.374 5.792 6.208
H 19.423 8.062 6.393
H 15.636 6.614 6.756
N 20.032 -0.854 6.719
C 21.163 -1.419 7.335
H 22.0 -0.798 7.618
C 20.93 -2.77 7.475
H 21.504 -3.575 7.907
C 19.246 -1.89 6.342
H 18.354 -1.833 5.737
N 19.682 -3.005 6.948
H 13.753 15.716 -8.326
C 12.864 15.104 -8.206
C 10.492 13.685 -7.926
C 12.922 13.718 -8.103
C 11.614 15.772 -8.167
C 10.393 15.086 -8.022
C 11.732 13.006 -7.968
H 11.622 16.862 -8.245
H 11.704 11.93 -7.878
H 9.583 13.094 -7.83
C 9.074 15.79 -7.977
N 6.59 17.071 -7.902
C 8.047 15.417 -7.111
C 8.757 16.885 -8.779
C 7.492 17.506 -8.701
C 6.818 16.098 -7.115
H 8.194 14.617 -6.392
H 9.485 17.291 -9.481
H 7.291 18.379 -9.317
H 6.035 15.828 -6.411
N 14.227 12.998 -8.115
C 15.52 13.553 -8.124
H 15.657 14.624 -8.137
C 16.427 12.516 -8.075
H 17.504 12.48 -8.029
C 14.387 11.656 -8.099
H 13.597 10.923 -8.091
N 15.693 11.355 -8.095
H 13.881 15.597 7.683
C 13.008 14.999 7.448
C 10.672 13.644 6.82
C 13.085 13.634 7.208
C 11.763 15.675 7.374
C 10.555 15.024 7.064
C 11.912 12.956 6.886
H 11.768 16.751 7.554
H 11.896 11.892 6.715
H 9.778 13.066 6.606
C 9.242 15.75 7.018
N 6.795 17.128 6.946
C 8.915 16.784 7.893
C 8.224 15.468 6.104
C 7.007 16.19 6.108
C 7.672 17.443 7.817
H 9.612 17.104 8.668
H 8.362 14.692 5.357
H 6.232 15.946 5.392
H 7.44 18.245 8.517
N 14.391 12.911 7.293
C 15.625 13.418 7.742
H 15.704 14.437 8.09
C 16.557 12.401 7.673
H 17.598 12.341 7.945
C 14.608 11.611 6.988
H 13.86 10.903 6.673
N 15.91 11.316 7.135
H -1.546 20.715 -9.101
C -1.781 19.87 -8.459
C -2.525 17.716 -6.859
C -0.798 19.153 -7.791
C -3.139 19.474 -8.348
C -3.556 18.378 -7.56
C -1.166 18.082 -6.979
H -3.869 20.052 -8.92
H -0.443 17.539 -6.384
H -2.768 16.904 -6.177
C -4.988 17.924 -7.487
N -7.649 17.009 -7.483
C -6.083 18.744 -7.749
C -5.359 16.621 -7.157
C -6.707 16.223 -7.144
C -7.399 18.237 -7.736
H -5.955 19.805 -7.966
H -4.612 15.873 -6.911
H -6.966 15.209 -6.856
H -8.23 18.909 -7.953
N 0.636 19.476 -7.967
C 1.211 20.689 -8.377
H 0.585 21.548 -8.566
C 2.58 20.513 -8.406
H 3.403 21.174 -8.628
C 1.652 18.616 -7.752
H 1.553 17.595 -7.417
N 2.812 19.197 -8.084
H -1.355 20.845 5.691
C -1.618 19.858 6.059
C -2.458 17.373 6.975
C -0.675 18.982 6.586
C -2.98 19.48 5.986
C -3.442 18.231 6.441
C -1.093 17.735 7.045
H -3.682 20.206 5.572
H -0.413 17.03 7.5
H -2.755 16.411 7.392
C -4.887 17.85 6.414
N -7.566 17.106 6.635
C -5.912 18.76 6.659
C -5.337 16.547 6.201
C -6.7 16.221 6.322
C -7.248 18.335 6.745
H -5.701 19.811 6.853
H -4.633 15.751 5.973
H -7.019 15.188 6.224
H -8.025 19.055 6.999
N 0.767 19.342 6.606
C 1.338 20.6 6.35
H 0.712 21.465 6.185
C 2.707 20.453 6.384
H 3.523 21.143 6.254
C 1.789 18.521 6.943
H 1.699 17.519 7.331
N 2.949 19.122 6.628
H -15.99 13.562 -7.833
C -15.388 12.672 -7.678
C -14.007 10.289 -7.3
C -13.998 12.713 -7.594
C -16.079 11.437 -7.567
C -15.414 10.213 -7.36
C -13.304 11.516 -7.414
H -17.169 11.462 -7.63
H -12.226 11.475 -7.349
H -13.43 9.374 -7.175
C -16.151 8.919 -7.197
N -17.494 6.482 -6.883
C -15.781 7.953 -6.263
C -17.273 8.565 -7.946
C -17.921 7.324 -7.752
C -16.499 6.751 -6.14
H -14.936 8.121 -5.603
H -17.665 9.231 -8.714
H -18.777 7.068 -8.375
H -16.194 6.0 -5.421
N -13.262 14.01 -7.676
C -13.81 15.306 -7.727
H -14.88 15.45 -7.706
C -12.768 16.209 -7.755
H -12.728 17.286 -7.756
C -11.918 14.165 -7.688
H -11.19 13.372 -7.639
N -11.61 15.469 -7.77
H -15.734 13.869 8.663
C -15.247 12.998 8.233
C -14.162 10.675 7.152
C -13.958 13.036 7.71
C -15.986 11.791 8.212
C -15.464 10.596 7.679
C -13.415 11.874 7.162
H -17.001 11.813 8.617
H -12.419 11.838 6.745
H -13.698 9.781 6.738
C -16.231 9.315 7.688
N -17.619 6.885 7.74
C -17.064 8.937 8.734
C -16.187 8.387 6.651
C -16.9 7.174 6.726
C -17.752 7.715 8.699
H -17.214 9.584 9.596
H -15.63 8.601 5.743
H -16.854 6.493 5.891
H -18.427 7.464 9.512
N -13.154 14.287 7.75
C -13.499 15.507 8.357
H -14.447 15.623 8.861
C -12.437 16.369 8.202
H -12.253 17.374 8.543
C -11.913 14.447 7.239
H -11.334 13.692 6.733
N -11.49 15.697 7.463
H -21.63 -1.563 -6.203
C -20.617 -1.829 -6.474
C -18.08 -2.67 -7.17
C -19.706 -0.883 -6.934
C -20.249 -3.195 -6.363
C -18.966 -3.654 -6.691
C -18.434 -1.308 -7.289
H -21.004 -3.894 -6.015
H -17.688 -0.635 -7.674
H -17.086 -2.968 -7.49
C -18.533 -5.084 -6.579
N -17.548 -7.696 -6.701
C -17.249 -5.441 -6.167
C -19.321 -6.178 -6.934
C -18.782 -7.487 -6.971
C -16.806 -6.77 -6.244
H -16.551 -4.684 -5.822
H -20.354 -6.042 -7.256
H -19.405 -8.311 -7.316
H -15.778 -7.016 -6.003
N -20.046 0.566 -6.97
C -21.288 1.174 -6.72
H -22.172 0.57 -6.582
C -21.09 2.539 -6.693
H -21.749 3.375 -6.534
C -19.198 1.573 -7.29
H -18.212 1.466 -7.715
N -19.748 2.74 -6.909
H -21.368 -1.433 7.847
C -20.308 -1.632 7.715
C -17.623 -2.302 7.418
C -19.366 -0.618 7.605
C -19.894 -2.986 7.671
C -18.544 -3.363 7.522
C -18.022 -0.952 7.452
H -20.673 -3.748 7.753
H -17.243 -0.212 7.344
H -16.56 -2.511 7.322
C -18.094 -4.789 7.481
N -17.189 -7.431 7.453
C -16.948 -5.2 6.801
C -18.771 -5.835 8.107
C -18.282 -7.154 8.055
C -16.543 -6.541 6.814
H -16.36 -4.497 6.219
H -19.699 -5.66 8.651
H -18.848 -7.951 8.536
H -15.662 -6.851 6.259
N -19.758 0.81 7.649
C -21.05 1.363 7.68
H -21.922 0.727 7.661
C -20.916 2.735 7.71
H -21.627 3.545 7.722
C -18.896 1.845 7.66
H -17.822 1.777 7.635
N -19.566 2.996 7.734
