1368
been cleaning
Pd 10.438 1.54 17.289
Pd 18.58 -4.717 7.062
Pd 16.689 9.4 6.888
Pd 1.557 -10.38 17.468
Pd -1.271 10.555 17.41
Pd 9.51 -16.324 7.139
Pd 18.484 -4.791 -7.751
Pd 16.426 9.423 -7.94
Pd 4.762 18.154 6.771
Pd -4.812 -18.274 7.251
Pd -10.146 -1.133 17.566
Pd -9.574 16.348 7.049
Pd 9.419 -16.215 -7.686
Pd -5.026 -18.572 -7.516
Pd 1.234 -10.42 -17.953
Pd -16.787 -9.775 -7.188
Pd -10.424 -1.616 -17.352
Pd 10.304 1.201 -18.21
Pd -18.676 4.442 -7.047
Pd -16.501 -9.46 7.524
Pd -1.458 10.103 -18.026
Pd -9.697 16.232 -7.593
Pd -18.647 4.875 7.562
Pd 4.612 18.175 -7.989
H -3.375 -17.436 13.833
C -3.196 -16.447 13.423
C -2.638 -13.872 12.528
C -3.541 -16.102 12.12
C -2.559 -15.502 14.268
C -2.246 -14.196 13.844
C -3.274 -14.806 11.674
H -2.282 -15.831 15.273
H -3.534 -14.47 10.68
H -2.45 -12.87 12.147
C -1.496 -13.236 14.712
N 0.091 -11.588 16.343
C -1.673 -13.123 16.089
C -0.494 -12.408 14.219
C 0.262 -11.596 15.078
C -0.85 -12.278 16.865
H -2.429 -13.715 16.604
H -0.228 -12.426 13.166
H 1.082 -11.014 14.664
H -0.971 -12.257 17.947
N -4.113 -17.115 11.188
C -4.461 -18.449 11.466
H -4.416 -18.828 12.477
C -4.803 -19.053 10.274
H -5.115 -20.053 10.019
C -4.402 -16.914 9.883
H -4.368 -15.973 9.357
N -4.661 -18.096 9.3
H 6.321 -6.503 20.575
C 6.134 -5.949 19.659
C 5.77 -4.398 17.381
C 5.201 -6.368 18.714
C 6.877 -4.749 19.458
C 6.718 -3.935 18.318
C 5.022 -5.59 17.569
H 7.582 -4.458 20.241
H 4.33 -5.864 16.785
H 5.609 -3.834 16.463
C 7.493 -2.663 18.099
N 8.929 -0.294 17.614
C 6.935 -1.527 17.513
C 8.835 -2.492 18.446
C 9.522 -1.279 18.183
C 7.699 -0.365 17.295
H 5.885 -1.512 17.235
H 9.391 -3.298 18.924
H 10.571 -1.187 18.458
H 7.248 0.509 16.841
N 4.408 -7.624 18.899
C 4.529 -8.584 19.924
H 5.257 -8.454 20.71
C 3.634 -9.603 19.663
H 3.421 -10.54 20.152
C 3.43 -8.071 18.078
H 3.086 -7.583 17.182
N 2.945 -9.237 18.532
H -6.993 3.844 21.065
C -6.556 3.94 20.074
C -5.375 4.354 17.594
C -6.823 3.037 19.047
C -5.701 5.055 19.849
C -5.099 5.302 18.601
C -6.221 3.239 17.806
H -5.541 5.748 20.679
H -6.372 2.569 16.971
H -4.918 4.473 16.612
C -4.247 6.502 18.325
N -2.667 8.736 17.73
C -4.37 7.238 17.149
C -3.27 6.998 19.189
C -2.492 8.131 18.846
C -3.55 8.347 16.901
H -5.129 6.979 16.416
H -3.082 6.519 20.15
H -1.733 8.495 19.538
H -3.668 8.915 15.985
N -7.77 1.897 19.241
C -8.449 1.529 20.416
H -8.266 2.055 21.341
C -9.292 0.48 20.108
H -9.988 -0.101 20.692
C -8.142 1.007 18.292
H -7.753 0.946 17.288
N -9.125 0.226 18.769
H 14.853 6.565 15.782
C 14.416 6.314 14.818
C 13.408 5.788 12.279
C 13.462 5.311 14.67
C 14.868 7.046 13.686
C 14.376 6.807 12.388
C 12.955 5.049 13.396
H 15.62 7.822 13.85
H 12.207 4.29 13.214
H 13.005 5.539 11.299
C 14.855 7.545 11.18
N 15.764 8.709 8.787
C 14.004 7.986 10.169
C 16.194 7.817 10.926
C 16.596 8.411 9.712
C 14.512 8.569 8.992
H 12.929 7.878 10.276
H 16.967 7.544 11.644
H 17.66 8.57 9.536
H 13.831 8.865 8.204
N 12.95 4.54 15.839
C 13.248 4.72 17.201
H 13.964 5.466 17.51
C 12.49 3.817 17.922
H 12.413 3.597 18.974
C 12.131 3.467 15.769
H 11.813 2.963 14.869
N 11.739 3.122 17.008
H 1.124 16.258 15.229
C 1.604 15.596 14.513
C 2.848 14.032 12.581
C 1.728 14.228 14.734
C 2.082 16.169 13.309
C 2.709 15.408 12.298
C 2.356 13.441 13.772
H 1.944 17.245 13.184
H 2.531 12.383 13.924
H 3.382 13.39 11.881
C 3.197 16.022 11.016
N 4.094 17.182 8.612
C 3.302 15.324 9.813
C 3.603 17.35 10.905
C 4.045 17.883 9.679
C 3.771 15.949 8.641
H 3.03 14.274 9.757
H 3.621 18.008 11.774
H 4.375 18.922 9.643
H 3.88 15.373 7.727
N 1.107 13.605 15.93
C 0.711 14.245 17.118
H 0.972 15.278 17.292
C 0.0 13.332 17.864
H -0.507 13.39 18.813
C 0.806 12.294 16.08
H 1.077 11.492 15.41
N -0.029 12.172 17.125
H 19.451 11.398 0.925
C 18.643 10.754 0.587
C 16.622 9.157 -0.453
C 17.825 10.051 1.471
C 18.441 10.656 -0.817
C 17.416 9.87 -1.376
C 16.818 9.241 0.948
H 19.099 11.237 -1.468
H 16.157 8.661 1.577
H 15.831 8.508 -0.826
C 17.153 9.807 -2.848
N 16.594 9.655 -5.589
C 15.872 9.944 -3.379
C 18.137 9.611 -3.816
C 17.809 9.539 -5.192
C 15.649 9.864 -4.763
H 15.028 10.14 -2.724
H 19.183 9.499 -3.531
H 18.598 9.369 -5.923
H 14.648 9.975 -5.163
N 17.978 10.197 2.951
C 18.897 11.008 3.639
H 19.64 11.576 3.1
C 18.636 10.893 4.987
H 19.1 11.318 5.862
C 17.27 9.536 3.899
H 16.562 8.739 3.727
N 17.558 10.048 5.107
H 6.603 21.163 0.898
C 6.08 20.28 0.541
C 4.737 18.096 -0.531
C 5.546 19.328 1.406
C 5.925 20.137 -0.865
C 5.245 19.046 -1.441
C 4.877 18.229 0.868
H 6.335 20.924 -1.503
H 4.463 17.442 1.481
H 4.224 17.213 -0.909
C 5.048 18.883 -2.916
N 4.652 18.463 -5.658
C 3.877 18.35 -3.452
C 5.992 19.224 -3.884
C 5.748 18.997 -5.26
C 3.736 18.155 -4.832
H 3.042 18.095 -2.806
H 6.946 19.668 -3.601
H 6.508 19.27 -5.991
H 2.821 17.73 -5.224
N 5.678 19.456 2.884
C 6.448 20.385 3.605
H 7.045 21.121 3.087
C 6.287 20.114 4.947
H 6.705 20.546 5.843
C 5.064 18.671 3.797
H 4.396 17.852 3.585
N 5.393 19.073 5.031
H 15.628 8.313 -14.652
C 15.041 7.52 -14.195
C 13.496 5.441 -13.185
C 14.986 7.331 -12.816
C 14.315 6.662 -15.065
C 13.515 5.609 -14.585
C 14.217 6.283 -12.311
H 14.382 6.851 -16.14
H 14.144 6.071 -11.253
H 12.921 4.623 -12.754
C 12.724 4.704 -15.471
N 11.27 2.863 -16.985
C 11.415 4.33 -15.172
C 13.208 4.142 -16.651
C 12.43 3.225 -17.391
C 10.727 3.408 -15.973
H 10.899 4.767 -14.321
H 14.202 4.396 -17.022
H 12.828 2.814 -18.318
H 9.702 3.136 -15.742
N 15.687 8.249 -11.875
C 16.504 9.351 -12.182
H 16.738 9.59 -13.208
C 16.88 9.942 -10.992
H 17.507 10.786 -10.756
C 15.69 8.138 -10.528
H 15.266 7.329 -9.951
N 16.28 9.22 -9.991
H 3.283 17.275 -14.531
C 3.217 16.256 -14.161
C 2.947 13.611 -13.351
C 3.659 15.892 -12.891
C 2.612 15.293 -15.008
C 2.433 13.951 -14.621
C 3.544 14.562 -12.491
H 2.244 15.638 -15.978
H 3.912 14.212 -11.537
H 2.886 12.58 -13.006
C 1.678 12.964 -15.459
N 0.03 11.272 -16.953
C 0.851 12.0 -14.888
C 1.658 12.952 -16.855
C 0.809 12.073 -17.571
C 0.055 11.169 -15.685
H 0.746 11.923 -13.81
H 2.268 13.652 -17.427
H 0.766 12.134 -18.658
H -0.64 10.481 -15.211
N 4.16 16.917 -11.938
C 4.492 18.256 -12.21
H 4.502 18.62 -13.226
C 4.758 18.874 -11.007
H 5.043 19.879 -10.744
C 4.37 16.731 -10.615
H 4.305 15.795 -10.082
N 4.577 17.922 -10.033
H 7.235 -3.938 -21.611
C 6.833 -4.053 -20.607
C 5.706 -4.5 -18.106
C 7.166 -3.188 -19.567
C 5.935 -5.136 -20.387
C 5.342 -5.396 -19.133
C 6.599 -3.415 -18.312
H 5.699 -5.773 -21.245
H 6.82 -2.791 -17.457
H 5.305 -4.646 -17.105
C 4.399 -6.543 -18.891
N 2.638 -8.701 -18.393
C 3.306 -6.47 -18.029
C 4.51 -7.787 -19.505
C 3.6 -8.832 -19.227
C 2.457 -7.577 -17.816
H 3.061 -5.535 -17.533
H 5.302 -7.982 -20.23
H 3.703 -9.778 -19.757
H 1.59 -7.472 -17.17
N 8.117 -2.05 -19.769
C 8.785 -1.681 -20.952
H 8.622 -2.231 -21.866
C 9.578 -0.585 -20.67
H 10.234 0.022 -21.273
C 8.48 -1.142 -18.832
H 8.099 -1.084 -17.826
N 9.419 -0.321 -19.332
H -6.696 6.539 -20.617
C -6.314 5.863 -19.857
C -5.481 4.02 -17.952
C -5.144 6.123 -19.148
C -7.068 4.683 -19.597
C -6.684 3.732 -18.629
C -4.721 5.191 -18.2
H -7.987 4.539 -20.17
H -3.81 5.316 -17.632
H -5.102 3.314 -17.215
C -7.496 2.506 -18.314
N -9.036 0.246 -17.672
C -7.624 2.0 -17.021
C -8.214 1.772 -19.26
C -8.979 0.638 -18.891
C -8.405 0.861 -16.754
H -7.153 2.506 -16.183
H -8.209 2.065 -20.31
H -9.555 0.116 -19.651
H -8.531 0.506 -15.737
N -4.372 7.387 -19.353
C -4.648 8.433 -20.254
H -5.48 8.362 -20.938
C -3.733 9.442 -20.028
H -3.606 10.428 -20.445
C -3.279 7.767 -18.653
H -2.804 7.205 -17.865
N -2.882 8.986 -19.051
H -2.999 -15.609 -16.407
C -2.716 -15.247 -15.422
C -2.081 -14.458 -12.833
C -1.835 -14.182 -15.242
C -3.276 -15.914 -14.296
C -2.983 -15.532 -12.973
C -1.513 -13.792 -13.943
H -3.965 -16.742 -14.486
H -0.834 -12.978 -13.73
H -1.794 -14.132 -11.835
C -3.566 -16.204 -11.77
N -4.488 -17.412 -9.425
C -4.04 -15.486 -10.672
C -3.676 -17.585 -11.62
C -4.157 -18.152 -10.418
C -4.504 -16.144 -9.522
H -4.078 -14.401 -10.699
H -3.384 -18.257 -12.427
H -4.243 -19.234 -10.335
H -4.892 -15.582 -8.678
N -1.251 -13.444 -16.401
C -1.527 -13.623 -17.77
H -2.228 -14.377 -18.093
C -0.792 -12.692 -18.476
H -0.716 -12.453 -19.524
C -0.343 -12.445 -16.323
H 0.094 -12.055 -15.418
N -0.052 -11.995 -17.55
H -14.756 -6.756 -15.967
C -14.347 -6.524 -14.987
C -13.416 -6.056 -12.407
C -13.386 -5.535 -14.791
C -14.844 -7.268 -13.885
C -14.394 -7.056 -12.567
C -12.917 -5.302 -13.497
H -15.602 -8.03 -14.085
H -12.175 -4.548 -13.275
H -13.047 -5.829 -11.408
C -14.941 -7.806 -11.395
N -15.98 -9.015 -9.101
C -16.302 -8.0 -11.19
C -14.142 -8.34 -10.383
C -14.715 -8.948 -9.246
C -16.773 -8.622 -10.021
H -17.036 -7.644 -11.914
H -13.059 -8.292 -10.461
H -14.076 -9.333 -8.46
H -17.845 -8.726 -9.862
N -12.855 -4.736 -15.934
C -13.2 -4.835 -17.293
H -13.942 -5.547 -17.619
C -12.466 -3.894 -17.986
H -12.445 -3.604 -19.023
C -11.979 -3.71 -15.84
H -11.581 -3.301 -14.925
N -11.657 -3.271 -17.068
H -7.193 -21.18 -1.582
C -6.412 -20.5 -1.252
C -4.464 -18.796 -0.241
C -5.556 -19.862 -2.146
C -6.3 -20.262 0.148
C -5.336 -19.39 0.696
C -4.57 -19.019 -1.636
H -7.007 -20.776 0.803
H -3.841 -18.531 -2.269
H -3.658 -18.155 0.111
C -5.232 -19.089 2.166
N -4.985 -18.479 4.897
C -4.856 -17.835 2.648
C -5.499 -20.005 3.185
C -5.369 -19.652 4.551
C -4.744 -17.584 4.026
H -4.662 -17.017 1.96
H -5.81 -21.023 2.951
H -5.601 -20.389 5.317
H -4.454 -16.602 4.381
N -5.71 -20.02 -3.624
C -6.544 -20.915 -4.321
H -7.135 -21.641 -3.782
C -6.429 -20.642 -5.67
H -6.901 -21.051 -6.549
C -5.074 -19.284 -4.564
H -4.355 -18.503 -4.374
N -5.515 -19.623 -5.784
H -19.255 -11.92 -1.151
C -18.505 -11.199 -0.838
C -16.638 -9.385 0.142
C -17.767 -10.444 -1.748
C -18.306 -11.038 0.558
C -17.36 -10.14 1.088
C -16.837 -9.526 -1.256
H -18.911 -11.651 1.232
H -16.238 -8.907 -1.91
H -15.912 -8.652 0.492
C -17.134 -9.995 2.558
N -16.704 -9.717 5.326
C -18.162 -9.808 3.476
C -15.873 -10.04 3.147
C -15.715 -9.9 4.541
C -17.892 -9.669 4.852
H -19.2 -9.754 3.146
H -14.992 -10.21 2.535
H -14.723 -9.946 4.977
H -18.724 -9.505 5.538
N -17.918 -10.649 -3.22
C -18.704 -11.613 -3.875
H -19.338 -12.281 -3.312
C -18.47 -11.5 -5.229
H -18.857 -12.026 -6.086
C -17.354 -9.894 -4.196
H -16.806 -8.977 -4.051
N -17.547 -10.492 -5.384
H -16.358 -7.428 14.014
C -15.446 -6.997 13.607
C -13.104 -5.816 12.683
C -15.004 -7.281 12.32
C -14.72 -6.081 14.417
C -13.534 -5.453 13.978
C -13.827 -6.699 11.858
H -15.124 -5.864 15.409
H -13.409 -6.938 10.889
H -12.165 -5.427 12.294
C -12.758 -4.462 14.798
N -11.254 -2.605 16.26
C -11.935 -3.5 14.213
C -12.757 -4.406 16.193
C -11.98 -3.451 16.891
C -11.183 -2.615 14.992
H -11.857 -3.412 13.134
H -13.343 -5.11 16.785
H -11.994 -3.44 17.981
H -10.519 -1.901 14.516
N -15.735 -8.198 11.419
C -16.69 -9.171 11.742
H -16.998 -9.311 12.768
C -17.048 -9.807 10.569
H -17.748 -10.595 10.345
C -15.642 -8.177 10.071
H -15.117 -7.437 9.485
N -16.312 -9.222 9.563
H 6.183 5.627 20.84
C 5.8 5.742 19.829
C 4.696 6.157 17.315
C 6.372 5.094 18.735
C 4.67 6.593 19.656
C 4.077 6.815 18.399
C 5.823 5.311 17.472
H 4.25 7.065 20.548
H 6.218 4.848 16.58
H 4.303 6.305 16.31
C 2.855 7.662 18.199
N 0.56 9.208 17.748
C 1.818 7.274 17.351
C 2.621 8.885 18.829
C 1.442 9.632 18.574
C 0.69 8.086 17.162
H 1.848 6.309 16.852
H 3.341 9.288 19.541
H 1.275 10.566 19.106
H -0.128 7.751 16.531
N 7.536 4.166 18.895
C 8.16 3.769 20.092
H 7.813 4.147 21.042
C 9.166 2.88 19.774
H 9.868 2.318 20.37
C 8.183 3.52 17.896
H 7.951 3.585 16.846
N 9.176 2.774 18.403
H -3.84 -7.59 20.633
C -3.894 -7.076 19.677
C -4.209 -5.698 17.292
C -2.983 -7.312 18.65
C -4.963 -6.156 19.501
C -5.154 -5.429 18.31
C -3.144 -6.625 17.449
H -5.659 -6.039 20.335
H -2.459 -6.75 16.621
H -4.276 -5.165 16.346
C -6.281 -4.443 18.128
N -8.393 -2.621 17.758
C -6.837 -4.146 16.885
C -6.896 -3.746 19.173
C -7.964 -2.844 18.942
C -7.887 -3.22 16.756
H -6.501 -4.658 15.99
H -6.58 -3.896 20.205
H -8.449 -2.365 19.788
H -8.33 -3.035 15.783
N -1.83 -8.242 18.843
C -1.417 -8.832 20.051
H -1.968 -8.663 20.963
C -0.279 -9.562 19.796
H 0.355 -10.172 20.419
C -1.003 -8.719 17.879
H -1.115 -8.57 16.815
N -0.003 -9.406 18.456
H -6.634 14.523 15.924
C -6.365 14.101 14.959
C -5.777 13.127 12.415
C -5.315 13.201 14.804
C -7.11 14.521 13.828
C -6.837 14.046 12.531
C -5.023 12.709 13.53
H -7.922 15.236 13.986
H -4.235 11.992 13.349
H -5.514 12.738 11.433
C -7.59 14.494 11.328
N -8.803 15.327 8.962
C -8.08 13.608 10.372
C -7.822 15.833 11.032
C -8.442 16.205 9.825
C -8.691 14.083 9.202
H -7.99 12.536 10.521
H -7.5 16.621 11.712
H -8.579 17.263 9.607
H -9.046 13.389 8.449
N -4.506 12.747 15.965
C -4.753 12.945 17.335
H -5.621 13.499 17.658
C -3.763 12.289 18.041
H -3.58 12.142 19.093
C -3.362 12.037 15.88
H -2.871 11.733 14.969
N -2.908 11.758 17.107
H -15.443 3.002 16.294
C -15.091 2.714 15.307
C -14.319 2.065 12.707
C -14.011 1.86 15.119
C -15.785 3.235 14.186
C -15.421 2.925 12.859
C -13.624 1.536 13.816
H -16.631 3.9 14.379
H -12.805 0.864 13.601
H -14.006 1.766 11.708
C -16.177 3.435 11.679
N -17.61 4.28 9.442
C -17.566 3.477 11.64
C -15.565 3.9 10.514
C -16.334 4.324 9.413
C -18.238 3.921 10.492
H -18.162 3.167 12.499
H -14.483 3.974 10.453
H -15.844 4.72 8.528
H -19.326 3.965 10.488
N -13.26 1.299 16.273
C -13.518 1.445 17.646
H -14.367 2.021 17.985
C -12.56 0.724 18.335
H -12.404 0.53 19.383
C -12.205 0.467 16.174
H -11.789 0.085 15.258
N -11.714 0.197 17.394
H -11.804 19.07 1.175
C -11.135 18.289 0.826
C -9.468 16.334 -0.241
C -10.376 17.509 1.696
C -11.054 18.085 -0.576
C -10.227 17.098 -1.15
C -9.536 16.532 1.16
H -11.67 18.72 -1.218
H -8.912 15.902 1.779
H -8.786 15.577 -0.624
C -10.145 16.875 -2.627
N -9.926 16.445 -5.401
C -10.141 15.61 -3.211
C -10.055 17.905 -3.555
C -9.946 17.636 -4.935
C -10.029 15.452 -4.607
H -10.241 14.723 -2.592
H -10.049 18.947 -3.234
H -9.861 18.472 -5.628
H -10.022 14.456 -5.034
N -10.487 17.672 3.176
C -11.3 18.575 3.883
H -11.901 19.302 3.357
C -11.146 18.318 5.229
H -11.566 18.766 6.114
C -9.778 16.991 4.107
H -8.97 16.303 3.915
N -10.267 17.267 5.328
H -21.749 6.432 1.659
C -20.834 5.957 1.316
C -18.562 4.729 0.278
C -19.865 5.482 2.194
C -20.661 5.804 -0.085
C -19.525 5.185 -0.645
C -18.725 4.869 1.674
H -21.46 6.171 -0.735
H -17.922 4.509 2.302
H -17.647 4.266 -0.088
C -19.334 5.012 -2.119
N -18.94 4.669 -4.881
C -18.757 3.874 -2.677
C -19.703 5.961 -3.066
C -19.481 5.741 -4.441
C -18.577 3.757 -4.066
H -18.461 3.041 -2.046
H -20.169 6.899 -2.768
H -19.78 6.507 -5.158
H -18.132 2.855 -4.472
N -20.012 5.633 3.667
C -20.954 6.405 4.37
H -21.703 6.973 3.838
C -20.671 6.295 5.716
H -21.103 6.735 6.6
C -19.234 5.036 4.596
H -18.431 4.344 4.399
N -19.609 5.427 5.82
H -8.303 15.722 -14.286
C -7.611 15.014 -13.837
C -5.777 13.172 -12.842
C -7.554 14.795 -12.463
C -6.741 14.307 -14.71
C -5.814 13.359 -14.238
C -6.628 13.878 -11.963
H -6.819 14.504 -15.783
H -6.536 13.662 -10.908
H -5.062 12.467 -12.421
C -4.924 12.569 -15.135
N -3.165 11.046 -16.683
C -4.869 11.178 -15.086
C -4.059 13.133 -16.069
C -3.187 12.323 -16.831
C -3.973 10.461 -15.894
H -5.533 10.63 -14.423
H -4.025 14.212 -16.216
H -2.504 12.794 -17.536
H -3.933 9.38 -15.845
N -8.485 15.482 -11.524
C -9.558 16.336 -11.827
H -9.772 16.605 -12.85
C -10.164 16.69 -10.637
H -10.991 17.338 -10.398
C -8.401 15.444 -10.176
H -7.606 14.994 -9.604
N -9.483 16.033 -9.64
H -17.871 2.62 -13.463
C -16.843 2.588 -13.111
C -14.177 2.41 -12.352
C -16.454 3.128 -11.888
C -15.894 1.94 -13.94
C -14.538 1.814 -13.58
C -15.116 3.051 -11.51
H -16.256 1.513 -14.878
H -14.748 3.483 -10.59
H -13.135 2.396 -12.035
C -13.549 1.071 -14.424
N -11.734 -0.402 -15.96
C -12.489 0.348 -13.877
C -13.595 1.015 -15.817
C -12.656 0.26 -16.553
C -11.598 -0.358 -14.697
H -12.343 0.306 -12.802
H -14.355 1.564 -16.375
H -12.716 0.243 -17.641
H -10.768 -0.901 -14.259
N -17.465 3.69 -10.955
C -18.824 3.942 -11.214
H -19.219 3.846 -12.214
C -19.42 4.276 -10.021
H -20.432 4.526 -9.746
C -17.243 4.069 -9.675
H -16.286 4.144 -9.18
N -18.429 4.23 -9.068
H 3.14 6.635 -21.732
C 3.556 6.528 -20.733
C 4.743 6.142 -18.258
C 3.058 7.237 -19.638
C 4.638 5.611 -20.577
C 5.248 5.372 -19.331
C 3.666 7.054 -18.399
H 4.983 5.076 -21.465
H 3.363 7.608 -17.521
H 5.21 6.054 -17.278
C 6.344 4.366 -19.116
N 8.421 2.556 -18.565
C 6.378 3.547 -17.988
C 7.425 4.157 -19.974
C 8.459 3.234 -19.653
C 7.438 2.654 -17.764
H 5.578 3.593 -17.255
H 7.519 4.729 -20.898
H 9.309 3.125 -20.325
H 7.461 2.047 -16.867
N 1.857 8.122 -19.762
C 1.207 8.516 -20.945
H 1.611 8.241 -21.907
C 0.089 9.241 -20.592
H -0.682 9.727 -21.166
C 1.199 8.734 -18.743
H 1.496 8.748 -17.706
N 0.056 9.266 -19.217
H -6.533 -5.87 -21.01
C -5.936 -5.738 -20.111
C -4.314 -5.546 -17.863
C -6.279 -4.824 -19.117
C -4.786 -6.561 -19.967
C -3.947 -6.501 -18.835
C -5.459 -4.721 -17.994
H -4.572 -7.275 -20.767
H -5.647 -4.008 -17.203
H -3.689 -5.418 -16.981
C -2.754 -7.392 -18.654
N -0.519 -9.069 -18.266
C -2.406 -7.942 -17.422
C -1.883 -7.759 -19.676
C -0.772 -8.598 -19.429
C -1.277 -8.771 -17.284
H -3.02 -7.757 -16.546
H -2.033 -7.398 -20.694
H -0.104 -8.858 -20.25
H -1.036 -9.185 -16.311
N -7.517 -3.996 -19.22
C -8.378 -3.864 -20.324
H -8.145 -4.351 -21.259
C -9.43 -3.054 -19.947
H -10.297 -2.685 -20.469
C -8.024 -3.205 -18.245
H -7.576 -3.015 -17.283
N -9.221 -2.731 -18.629
H 15.664 -2.756 -16.607
C 15.28 -2.458 -15.635
C 14.422 -1.811 -13.07
C 14.212 -1.576 -15.493
C 15.915 -3.009 -14.488
C 15.505 -2.707 -13.174
C 13.783 -1.251 -14.205
H 16.745 -3.7 -14.656
H 12.968 -0.563 -14.024
H 14.069 -1.512 -12.084
C 16.18 -3.274 -11.961
N 17.449 -4.217 -9.631
C 15.491 -3.686 -10.821
C 17.556 -3.444 -11.854
C 18.142 -3.933 -10.669
C 16.175 -4.164 -9.685
H 14.405 -3.674 -10.802
H 18.216 -3.199 -12.687
H 19.223 -4.065 -10.628
H 15.617 -4.51 -8.819
N 13.505 -1.015 -16.683
C 13.814 -1.199 -18.043
H 14.687 -1.764 -18.334
C 12.857 -0.54 -18.79
H 12.722 -0.399 -19.85
C 12.45 -0.169 -16.649
H 12.023 0.284 -15.767
N 11.97 0.002 -17.895
H 5.535 -15.138 -16.027
C 5.795 -14.359 -15.315
C 6.52 -12.494 -13.385
C 5.388 -13.037 -15.473
C 6.544 -14.746 -14.176
C 6.911 -13.833 -13.167
C 5.763 -12.096 -14.516
H 6.813 -15.801 -14.083
H 5.519 -11.046 -14.617
H 6.816 -11.729 -12.669
C 7.616 -14.272 -11.92
N 8.714 -15.255 -9.545
C 7.288 -13.772 -10.663
C 8.599 -15.262 -11.884
C 9.133 -15.722 -10.659
C 7.875 -14.298 -9.502
H 6.521 -13.012 -10.552
H 8.956 -15.726 -12.804
H 9.861 -16.532 -10.663
H 7.551 -13.95 -8.526
N 4.48 -12.661 -16.591
C 4.186 -13.417 -17.74
H 4.732 -14.324 -17.952
C 3.165 -12.78 -18.408
H 2.621 -13.006 -19.311
C 3.773 -11.51 -16.699
H 3.852 -10.644 -16.058
N 2.852 -11.667 -17.664
H 21.519 -6.55 -1.837
C 20.642 -6.018 -1.478
C 18.472 -4.675 -0.38
C 19.711 -5.444 -2.341
C 20.478 -5.919 -0.068
C 19.386 -5.255 0.525
C 18.626 -4.764 -1.789
H 21.232 -6.399 0.562
H 17.868 -4.291 -2.398
H 17.617 -4.124 0.007
C 19.192 -5.169 2.012
N 18.784 -4.972 4.78
C 17.938 -5.265 2.615
C 20.23 -5.004 2.931
C 19.979 -4.917 4.322
C 17.79 -5.163 4.009
H 17.052 -5.458 2.017
H 21.266 -4.944 2.595
H 20.815 -4.817 5.011
H 16.813 -5.274 4.469
N 19.85 -5.565 -3.826
C 20.82 -6.294 -4.542
H 21.587 -6.845 -4.019
C 20.545 -6.163 -5.888
H 21.002 -6.569 -6.776
C 19.04 -5.0 -4.753
H 18.185 -4.377 -4.547
N 19.456 -5.33 -5.985
H 10.836 -19.251 -1.723
C 10.556 -18.254 -1.395
C 9.84 -15.77 -0.37
C 10.266 -17.226 -2.287
C 10.475 -18.034 0.006
C 10.111 -16.791 0.564
C 9.913 -15.977 -1.773
H 10.69 -18.883 0.659
H 9.701 -15.13 -2.411
H 9.579 -14.775 -0.012
C 9.998 -16.581 2.046
N 9.681 -16.301 4.819
C 9.015 -15.783 2.632
C 10.831 -17.198 2.981
C 10.632 -17.031 4.37
C 8.904 -15.673 4.03
H 8.276 -15.277 2.017
H 11.643 -17.848 2.657
H 11.27 -17.573 5.065
H 8.099 -15.098 4.475
N 10.31 -17.455 -3.764
C 10.718 -18.618 -4.442
H 11.073 -19.477 -3.893
C 10.544 -18.406 -5.795
H 10.693 -19.03 -6.661
C 9.914 -16.579 -4.716
H 9.501 -15.599 -4.539
N 10.084 -17.12 -5.933
H 17.436 -3.807 13.754
C 16.606 -3.286 13.284
C 14.424 -1.902 12.244
C 16.454 -3.215 11.904
C 15.663 -2.653 14.138
C 14.549 -1.94 13.646
C 15.357 -2.525 11.383
H 15.824 -2.738 15.216
H 15.175 -2.436 10.322
H 13.598 -1.354 11.795
C 13.575 -1.232 14.534
N 11.771 0.237 16.111
C 12.204 -1.174 14.284
C 13.949 -0.55 15.686
C 13.002 0.158 16.45
C 11.341 -0.43 15.112
H 11.773 -1.728 13.454
H 14.986 -0.544 16.022
H 13.331 0.664 17.356
H 10.272 -0.419 14.916
N 17.429 -3.86 10.978
C 18.548 -4.653 11.295
H 18.8 -4.857 12.325
C 19.128 -5.064 10.109
H 19.97 -5.697 9.88
C 17.385 -3.791 9.632
H 16.649 -3.262 9.048
N 18.397 -4.489 9.101
H 7.903 -16.518 13.795
C 7.431 -15.603 13.445
C 6.155 -13.246 12.695
C 7.605 -15.122 12.149
C 6.602 -14.897 14.361
C 5.946 -13.701 14.012
C 6.968 -13.938 11.777
H 6.494 -15.305 15.371
H 7.075 -13.501 10.796
H 5.661 -12.335 12.362
C 5.057 -12.934 14.932
N 3.218 -11.418 16.415
C 4.064 -13.506 15.713
C 5.112 -11.546 15.035
C 4.167 -10.836 15.794
C 3.174 -12.698 16.449
H 3.933 -14.587 15.753
H 5.895 -10.993 14.525
H 4.223 -9.756 15.841
H 2.39 -13.182 17.034
N 8.437 -15.84 11.145
C 9.231 -16.985 11.318
H 9.305 -17.456 12.287
C 9.776 -17.31 10.09
H 10.396 -18.126 9.757
C 8.507 -15.523 9.835
H 7.954 -14.74 9.343
N 9.358 -16.345 9.205
H -13.994 -15.757 -9.097
C -13.204 -15.329 -8.484
C -11.084 -14.395 -6.95
C -13.363 -14.132 -7.79
C -11.978 -16.048 -8.411
C -10.879 -15.603 -7.65
C -12.301 -13.669 -7.014
H -11.913 -16.988 -8.966
H -12.355 -12.752 -6.444
H -10.277 -13.985 -6.347
C -9.569 -16.336 -7.592
N -7.049 -17.606 -7.499
C -8.775 -16.394 -6.45
C -9.007 -17.009 -8.673
C -7.742 -17.632 -8.574
C -7.522 -17.04 -6.458
H -9.122 -15.958 -5.517
H -9.526 -17.065 -9.629
H -7.333 -18.144 -9.445
H -6.932 -17.066 -5.55
N -14.623 -13.331 -7.893
C -15.77 -13.626 -8.655
H -15.825 -14.536 -9.233
C -16.653 -12.575 -8.517
H -17.618 -12.363 -8.95
C -14.861 -12.144 -7.289
H -14.184 -11.62 -6.636
N -16.071 -11.685 -7.645
H -13.915 -15.784 7.56
C -13.018 -15.172 7.587
C -10.62 -13.761 7.657
C -13.063 -13.784 7.68
C -11.771 -15.846 7.526
C -10.538 -15.164 7.549
C -11.859 -13.076 7.723
H -11.789 -16.936 7.447
H -11.821 -11.999 7.81
H -9.702 -13.176 7.711
C -9.227 -15.878 7.464
N -6.755 -17.216 7.302
C -8.953 -17.064 8.137
C -8.163 -15.434 6.684
C -6.949 -16.146 6.635
C -7.702 -17.7 8.013
H -9.706 -17.532 8.771
H -8.268 -14.546 6.067
H -6.147 -15.794 5.995
H -7.538 -18.642 8.535
N -14.366 -13.056 7.693
C -15.662 -13.598 7.599
H -15.807 -14.666 7.54
C -16.56 -12.551 7.562
H -17.631 -12.5 7.453
C -14.522 -11.716 7.778
H -13.729 -10.993 7.88
N -15.822 -11.401 7.687
H 1.29 -21.125 -7.88
C 1.474 -20.074 -7.676
C 2.121 -17.414 -7.167
C 0.447 -19.147 -7.529
C 2.825 -19.66 -7.58
C 3.185 -18.324 -7.323
C 0.769 -17.813 -7.272
H 3.602 -20.418 -7.709
H 0.014 -17.05 -7.139
H 2.342 -16.364 -6.984
C 4.605 -17.882 -7.253
N 7.225 -16.923 -7.219
C 5.106 -17.069 -6.238
C 5.547 -18.225 -8.217
C 6.858 -17.72 -8.156
C 6.438 -16.624 -6.265
H 4.47 -16.776 -5.407
H 5.282 -18.872 -9.052
H 7.56 -17.987 -8.944
H 6.819 -15.979 -5.482
N -0.979 -19.566 -7.606
C -1.491 -20.869 -7.737
H -0.827 -21.713 -7.844
C -2.867 -20.786 -7.696
H -3.651 -21.521 -7.774
C -2.044 -18.733 -7.629
H -2.012 -17.656 -7.695
N -3.171 -19.457 -7.531
H 1.343 -20.947 7.931
C 1.576 -20.002 7.446
C 2.323 -17.6 6.261
C 0.592 -19.177 6.909
C 2.936 -19.601 7.411
C 3.347 -18.382 6.838
C 0.965 -17.982 6.299
H 3.67 -20.267 7.872
H 0.251 -17.327 5.819
H 2.578 -16.672 5.753
C 4.765 -17.908 6.863
N 7.393 -16.964 6.977
C 5.091 -16.561 7.008
C 5.879 -18.741 6.757
C 7.191 -18.217 6.817
C 6.425 -16.142 7.042
H 4.313 -15.812 7.114
H 5.764 -19.816 6.617
H 8.043 -18.89 6.725
H 6.658 -15.088 7.137
N -0.846 -19.519 7.035
C -1.411 -20.747 7.417
H -0.784 -21.611 7.577
C -2.775 -20.572 7.498
H -3.589 -21.235 7.741
C -1.876 -18.677 6.8
H -1.804 -17.672 6.416
N -3.016 -19.252 7.203
H 15.73 -13.822 -8.825
C 15.171 -12.921 -8.587
C 13.888 -10.528 -7.982
C 13.793 -12.927 -8.378
C 15.903 -11.711 -8.488
C 15.284 -10.488 -8.168
C 13.148 -11.726 -8.085
H 16.983 -11.75 -8.649
H 12.081 -11.662 -7.923
H 13.355 -9.605 -7.761
C 16.039 -9.214 -8.015
N 17.354 -6.77 -7.732
C 15.868 -8.38 -6.913
C 16.955 -8.737 -8.948
C 17.594 -7.493 -8.763
C 16.556 -7.163 -6.822
H 15.208 -8.672 -6.102
H 17.185 -9.309 -9.847
H 18.292 -7.135 -9.519
H 16.416 -6.52 -5.961
N 13.013 -14.194 -8.398
C 13.491 -15.498 -8.61
H 14.526 -15.668 -8.864
C 12.437 -16.365 -8.421
H 12.351 -17.437 -8.484
C 11.674 -14.299 -8.24
H 10.968 -13.484 -8.193
N 11.347 -15.593 -8.095
H 15.912 -13.878 7.513
C 15.317 -12.982 7.353
C 13.945 -10.597 6.962
C 13.935 -13.026 7.189
C 16.007 -11.739 7.32
C 15.343 -10.511 7.134
C 13.247 -11.829 6.987
H 17.089 -11.756 7.472
H 12.174 -11.791 6.868
H 13.371 -9.686 6.803
C 16.05 -9.189 7.142
N 17.318 -6.69 7.17
C 15.514 -8.062 7.762
C 17.29 -8.955 6.548
C 17.895 -7.675 6.586
C 16.191 -6.833 7.741
H 14.575 -8.126 8.304
H 17.824 -9.757 6.04
H 18.866 -7.525 6.116
H 15.765 -5.971 8.242
N 13.181 -14.312 7.262
C 13.668 -15.583 7.617
H 14.716 -15.725 7.836
C 12.599 -16.458 7.633
H 12.513 -17.509 7.851
C 11.87 -14.475 6.976
H 11.209 -13.721 6.576
N 11.49 -15.725 7.29
H 21.282 1.383 -8.183
C 20.229 1.59 -8.014
C 17.56 2.283 -7.607
C 19.283 0.584 -7.861
C 19.828 2.945 -7.97
C 18.487 3.331 -7.769
C 17.946 0.928 -7.651
H 20.605 3.703 -8.091
H 17.171 0.189 -7.506
H 16.506 2.513 -7.459
C 18.059 4.758 -7.75
N 17.186 7.413 -7.797
C 17.05 5.244 -6.922
C 18.634 5.732 -8.558
C 18.172 7.056 -8.527
C 16.654 6.589 -6.983
H 16.573 4.598 -6.19
H 19.458 5.493 -9.23
H 18.663 7.801 -9.152
H 15.883 6.957 -6.31
N 19.675 -0.843 -7.886
C 20.964 -1.397 -7.958
H 21.83 -0.761 -8.049
C 20.833 -2.769 -7.892
H 21.544 -3.578 -7.929
C 18.812 -1.879 -7.915
H 17.739 -1.815 -8.02
N 19.492 -3.025 -7.769
H 21.382 1.353 7.737
C 20.491 1.583 7.158
C 18.22 2.337 5.74
C 19.726 0.6 6.537
C 20.099 2.943 7.084
C 18.941 3.355 6.395
C 18.6 0.977 5.808
H 20.712 3.677 7.613
H 17.992 0.263 5.27
H 17.34 2.598 5.154
C 18.468 4.771 6.4
N 17.543 7.414 6.583
C 17.126 5.103 6.557
C 19.304 5.879 6.305
C 18.788 7.189 6.4
C 16.718 6.442 6.635
H 16.377 4.329 6.685
H 20.381 5.757 6.186
H 19.473 8.035 6.375
H 15.671 6.664 6.821
N 20.035 -0.841 6.733
C 21.17 -1.405 7.343
H 22.009 -0.784 7.618
C 20.936 -2.755 7.488
H 21.511 -3.56 7.915
C 19.25 -1.876 6.359
H 18.359 -1.821 5.751
N 19.685 -2.989 6.968
H 13.751 15.694 -8.349
C 12.866 15.082 -8.199
C 10.499 13.665 -7.839
C 12.928 13.7 -8.056
C 11.615 15.748 -8.162
C 10.397 15.064 -7.98
C 11.741 12.988 -7.876
H 11.62 16.836 -8.271
H 11.719 11.914 -7.758
H 9.594 13.073 -7.712
C 9.077 15.767 -7.942
N 6.595 17.054 -7.884
C 8.048 15.405 -7.075
C 8.76 16.852 -8.758
C 7.498 17.476 -8.687
C 6.82 16.087 -7.087
H 8.192 14.613 -6.345
H 9.489 17.249 -9.465
H 7.299 18.343 -9.312
H 6.036 15.825 -6.381
N 14.233 12.982 -8.083
C 15.524 13.537 -8.164
H 15.659 14.607 -8.22
C 16.434 12.502 -8.126
H 17.511 12.467 -8.131
C 14.397 11.643 -8.014
H 13.61 10.911 -7.926
N 15.701 11.341 -8.077
H 13.889 15.618 7.43
C 13.0 15.005 7.31
C 10.623 13.594 6.981
C 13.055 13.617 7.223
C 11.753 15.679 7.232
C 10.529 14.998 7.069
C 11.864 12.908 7.055
H 11.764 16.77 7.301
H 11.84 11.828 7.019
H 9.711 13.005 6.891
C 9.217 15.722 7.022
N 6.779 17.103 6.948
C 8.909 16.78 7.874
C 8.188 15.413 6.131
C 6.975 16.14 6.132
C 7.667 17.438 7.799
H 9.62 17.115 8.629
H 8.316 14.616 5.405
H 6.19 15.882 5.43
H 7.443 18.255 8.484
N 14.361 12.898 7.309
C 15.599 13.419 7.725
H 15.68 14.448 8.043
C 16.528 12.4 7.676
H 17.572 12.345 7.938
C 14.571 11.589 7.035
H 13.821 10.885 6.716
N 15.873 11.298 7.181
H -1.528 20.679 -9.115
C -1.762 19.838 -8.466
C -2.506 17.692 -6.85
C -0.78 19.128 -7.79
C -3.117 19.443 -8.352
C -3.534 18.354 -7.553
C -1.147 18.06 -6.973
H -3.848 20.016 -8.928
H -0.423 17.52 -6.376
H -2.752 16.882 -6.166
C -4.968 17.919 -7.47
N -7.637 17.078 -7.462
C -6.043 18.776 -7.697
C -5.363 16.613 -7.17
C -6.722 16.244 -7.153
C -7.367 18.303 -7.683
H -5.891 19.839 -7.887
H -4.626 15.846 -6.952
H -7.006 15.23 -6.891
H -8.19 18.992 -7.875
N 0.652 19.456 -7.968
C 1.222 20.667 -8.39
H 0.593 21.522 -8.589
C 2.591 20.495 -8.42
H 3.411 21.156 -8.652
C 1.67 18.603 -7.742
H 1.575 17.586 -7.395
N 2.827 19.184 -8.083
H -1.353 20.781 5.542
C -1.626 19.824 5.976
C -2.485 17.406 7.047
C -0.693 18.982 6.578
C -2.989 19.443 5.907
C -3.457 18.224 6.432
C -1.121 17.773 7.12
H -3.687 20.137 5.433
H -0.451 17.106 7.647
H -2.795 16.478 7.526
C -4.896 17.829 6.395
N -7.571 17.031 6.608
C -5.936 18.715 6.656
C -5.325 16.527 6.151
C -6.683 16.182 6.266
C -7.267 18.265 6.741
H -5.736 19.766 6.865
H -4.61 15.748 5.905
H -6.984 15.145 6.144
H -8.049 18.974 7.012
N 0.751 19.338 6.588
C 1.327 20.585 6.298
H 0.702 21.445 6.114
C 2.695 20.431 6.334
H 3.514 21.116 6.187
C 1.769 18.518 6.941
H 1.675 17.524 7.349
N 2.933 19.106 6.611
H -15.986 13.51 -7.794
C -15.376 12.62 -7.676
C -13.976 10.235 -7.384
C -13.985 12.668 -7.612
C -16.057 11.376 -7.594
C -15.382 10.149 -7.44
C -13.282 11.471 -7.47
H -17.149 11.397 -7.64
H -12.203 11.436 -7.418
H -13.39 9.322 -7.285
C -16.108 8.842 -7.334
N -17.466 6.403 -7.105
C -15.737 7.838 -6.44
C -17.234 8.517 -8.091
C -17.893 7.276 -7.938
C -16.457 6.633 -6.364
H -14.91 7.99 -5.752
H -17.64 9.227 -8.813
H -18.789 7.072 -8.519
H -16.189 5.876 -5.633
N -13.257 13.972 -7.673
C -13.814 15.264 -7.729
H -14.885 15.4 -7.743
C -12.779 16.175 -7.723
H -12.746 17.252 -7.72
C -11.914 14.137 -7.665
H -11.18 13.348 -7.621
N -11.615 15.444 -7.716
H -15.763 13.867 8.612
C -15.266 12.991 8.204
C -14.154 10.658 7.174
C -13.961 13.026 7.721
C -16.008 11.782 8.171
C -15.475 10.583 7.658
C -13.404 11.857 7.201
H -17.032 11.805 8.553
H -12.392 11.813 6.825
H -13.678 9.76 6.785
C -16.245 9.303 7.638
N -17.622 6.871 7.628
C -17.044 8.877 8.695
C -16.219 8.414 6.564
C -16.93 7.198 6.607
C -17.719 7.644 8.638
H -17.157 9.481 9.594
H -15.662 8.66 5.664
H -16.89 6.525 5.76
H -18.331 7.321 9.48
N -13.157 14.28 7.764
C -13.505 15.505 8.36
H -14.455 15.623 8.859
C -12.441 16.368 8.205
H -12.258 17.375 8.543
C -11.912 14.438 7.262
H -11.329 13.681 6.764
N -11.492 15.694 7.473
H -21.648 -1.617 -6.055
C -20.643 -1.886 -6.369
C -18.113 -2.73 -7.154
C -19.735 -0.943 -6.845
C -20.268 -3.255 -6.274
C -18.989 -3.71 -6.645
C -18.472 -1.37 -7.253
H -21.01 -3.963 -5.896
H -17.737 -0.703 -7.679
H -17.13 -3.029 -7.517
C -18.55 -5.136 -6.553
N -17.552 -7.734 -6.7
C -17.268 -5.488 -6.131
C -19.329 -6.223 -6.943
C -18.782 -7.525 -6.99
C -16.818 -6.811 -6.223
H -16.581 -4.73 -5.768
H -20.355 -6.082 -7.282
H -19.396 -8.346 -7.359
H -15.792 -7.057 -5.971
N -20.059 0.51 -6.874
C -21.283 1.145 -6.594
H -22.162 0.559 -6.371
C -21.074 2.51 -6.65
H -21.708 3.364 -6.471
C -19.18 1.492 -7.165
H -18.149 1.356 -7.446
N -19.757 2.688 -6.995
H -21.339 -1.37 7.91
C -20.289 -1.572 7.717
C -17.632 -2.257 7.261
C -19.351 -0.559 7.553
C -19.886 -2.93 7.653
C -18.549 -3.319 7.422
C -18.02 -0.899 7.319
H -20.669 -3.681 7.784
H -17.251 -0.156 7.154
H -16.578 -2.467 7.093
C -18.115 -4.757 7.363
N -17.219 -7.407 7.351
C -16.96 -5.177 6.701
C -18.817 -5.807 7.959
C -18.332 -7.13 7.916
C -16.561 -6.521 6.719
H -16.351 -4.48 6.134
H -19.761 -5.638 8.477
H -18.914 -7.927 8.38
H -15.668 -6.834 6.185
N -19.748 0.87 7.587
C -21.044 1.411 7.629
H -21.907 0.765 7.683
C -20.926 2.783 7.582
H -21.646 3.584 7.604
C -18.895 1.914 7.663
H -17.826 1.856 7.812
N -19.582 3.056 7.502
