1368
been cleaning
Pd 10.382 1.554 17.34
Pd 18.518 -4.715 7.069
Pd 16.609 9.411 6.885
Pd 1.714 -10.484 17.386
Pd -1.228 10.388 17.368
Pd 9.593 -16.537 6.983
Pd 18.396 -5.005 -7.753
Pd 16.572 9.247 -7.873
Pd 4.644 18.214 6.937
Pd -4.735 -18.507 7.187
Pd -10.013 -1.339 17.597
Pd -9.642 16.46 7.094
Pd 9.127 -16.444 -7.771
Pd -5.149 -18.547 -7.611
Pd 1.031 -10.351 -17.98
Pd -16.861 -9.534 -7.473
Pd -10.426 -1.202 -17.484
Pd 10.265 1.163 -18.165
Pd -18.618 4.712 -6.912
Pd -16.493 -9.524 7.373
Pd -1.342 10.184 -17.96
Pd -9.476 16.354 -7.574
Pd -18.636 4.831 7.824
Pd 4.839 18.247 -7.882
H -2.951 -17.79 13.676
C -2.826 -16.776 13.306
C -2.4 -14.147 12.502
C -3.292 -16.37 12.057
C -2.131 -15.864 14.139
C -1.88 -14.532 13.754
C -3.095 -15.048 11.661
H -1.767 -16.233 15.101
H -3.47 -14.664 10.722
H -2.28 -13.117 12.169
C -1.096 -13.59 14.608
N 0.42 -11.861 16.196
C -1.227 -13.517 15.992
C -0.151 -12.705 14.089
C 0.578 -11.844 14.93
C -0.439 -12.628 16.746
H -1.946 -14.14 16.523
H 0.048 -12.681 13.022
H 1.288 -11.149 14.501
H -0.56 -12.58 17.828
N -3.908 -17.35 11.12
C -4.262 -18.684 11.384
H -4.208 -19.078 12.388
C -4.63 -19.263 10.189
H -4.958 -20.255 9.924
C -4.237 -17.118 9.828
H -4.222 -16.163 9.325
N -4.499 -18.289 9.228
H 6.151 -6.402 20.629
C 5.958 -5.836 19.721
C 5.601 -4.268 17.458
C 4.995 -6.221 18.79
C 6.739 -4.664 19.512
C 6.586 -3.843 18.378
C 4.817 -5.434 17.654
H 7.468 -4.4 20.283
H 4.089 -5.676 16.892
H 5.437 -3.692 16.55
C 7.396 -2.598 18.151
N 8.883 -0.264 17.662
C 6.859 -1.446 17.578
C 8.747 -2.464 18.479
C 9.461 -1.268 18.214
C 7.649 -0.305 17.354
H 5.805 -1.403 17.318
H 9.29 -3.286 18.946
H 10.515 -1.2 18.478
H 7.213 0.583 16.913
N 4.201 -7.476 18.967
C 4.254 -8.375 20.047
H 4.867 -8.164 20.91
C 3.438 -9.444 19.745
H 3.184 -10.346 20.278
C 3.263 -7.958 18.116
H 2.877 -7.46 17.241
N 2.92 -9.2 18.495
H -4.362 5.689 20.864
C -4.85 5.525 19.908
C -6.182 4.935 17.56
C -4.653 6.379 18.816
C -5.695 4.375 19.816
C -6.368 4.028 18.632
C -5.337 6.086 17.638
H -5.797 3.745 20.703
H -5.277 6.719 16.762
H -6.726 4.758 16.631
C -7.178 2.765 18.475
N -8.69 0.436 18.022
C -7.053 1.965 17.341
C -8.103 2.26 19.394
C -8.851 1.075 19.122
C -7.826 0.807 17.169
H -6.35 2.231 16.56
H -8.301 2.784 20.33
H -9.599 0.735 19.839
H -7.733 0.219 16.264
N -3.702 7.555 18.911
C -3.062 8.012 20.07
H -3.25 7.54 21.022
C -2.23 9.056 19.721
H -1.54 9.654 20.296
C -3.271 8.368 17.907
H -3.576 8.287 16.876
N -2.359 9.265 18.359
H 14.744 6.612 15.838
C 14.328 6.336 14.873
C 13.366 5.743 12.33
C 13.402 5.307 14.724
C 14.774 7.063 13.737
C 14.3 6.792 12.44
C 12.921 5.008 13.449
H 15.504 7.862 13.896
H 12.197 4.226 13.269
H 12.983 5.471 11.348
C 14.753 7.535 11.23
N 15.581 8.698 8.833
C 13.867 7.969 10.245
C 16.087 7.814 10.948
C 16.458 8.407 9.725
C 14.338 8.555 9.062
H 12.796 7.849 10.379
H 16.875 7.546 11.651
H 17.514 8.576 9.517
H 13.645 8.852 8.285
N 12.887 4.547 15.895
C 13.146 4.764 17.259
H 13.835 5.534 17.57
C 12.388 3.862 17.979
H 12.283 3.667 19.034
C 12.099 3.451 15.828
H 11.82 2.919 14.931
N 11.679 3.128 17.062
H 4.763 16.327 13.239
C 3.841 15.816 12.971
C 1.497 14.457 12.413
C 3.246 16.008 11.722
C 3.27 14.916 13.929
C 2.079 14.204 13.681
C 2.07 15.322 11.438
H 3.794 14.796 14.88
H 1.521 15.487 10.519
H 0.534 14.004 12.18
C 1.419 13.251 14.656
N -0.08 11.528 16.361
C 0.738 12.116 14.224
C 1.374 13.383 16.044
C 0.595 12.502 16.859
C 0.028 11.282 15.112
H 0.754 11.839 13.175
H 1.92 14.185 16.546
H 0.587 12.658 17.94
H -0.459 10.396 14.713
N 3.829 16.957 10.719
C 4.549 18.123 10.997
H 4.721 18.415 12.023
C 4.863 18.722 9.791
H 5.386 19.634 9.551
C 3.786 16.851 9.366
H 3.347 16.021 8.834
N 4.383 17.911 8.772
H 19.396 11.368 0.943
C 18.56 10.756 0.616
C 16.468 9.229 -0.405
C 17.729 10.084 1.507
C 18.338 10.657 -0.782
C 17.288 9.896 -1.335
C 16.682 9.315 0.996
H 19.014 11.212 -1.438
H 16.002 8.77 1.636
H 15.649 8.608 -0.764
C 17.078 9.785 -2.814
N 16.726 9.543 -5.606
C 15.833 9.822 -3.439
C 18.129 9.653 -3.713
C 17.898 9.558 -5.096
C 15.711 9.697 -4.844
H 14.932 9.99 -2.855
H 19.161 9.633 -3.363
H 18.757 9.507 -5.758
H 14.733 9.76 -5.313
N 17.916 10.215 2.982
C 18.852 11.014 3.663
H 19.588 11.587 3.118
C 18.606 10.893 5.015
H 19.079 11.315 5.886
C 17.224 9.547 3.933
H 16.512 8.754 3.765
N 17.53 10.049 5.141
H 6.824 20.816 -1.795
C 6.118 20.085 -1.408
C 4.402 18.286 -0.217
C 5.328 19.296 -2.253
C 6.047 19.972 0.019
C 5.193 19.064 0.671
C 4.465 18.387 -1.648
H 6.701 20.626 0.602
H 3.803 17.755 -2.228
H 3.682 17.584 0.203
C 5.128 18.907 2.184
N 4.916 18.528 5.033
C 4.825 17.699 2.803
C 5.361 19.907 3.129
C 5.276 19.664 4.54
C 4.707 17.571 4.209
H 4.683 16.806 2.203
H 5.612 20.921 2.809
H 5.492 20.491 5.22
H 4.415 16.605 4.605
N 5.429 19.439 -3.759
C 6.162 20.435 -4.437
H 6.697 21.191 -3.885
C 6.018 20.24 -5.79
H 6.383 20.771 -6.652
C 4.81 18.704 -4.731
H 4.109 17.898 -4.567
N 5.255 19.112 -5.942
H 15.706 8.2 -14.609
C 15.093 7.424 -14.157
C 13.492 5.381 -13.156
C 15.014 7.244 -12.779
C 14.358 6.575 -15.031
C 13.529 5.541 -14.555
C 14.217 6.214 -12.28
H 14.443 6.756 -16.106
H 14.119 6.007 -11.224
H 12.896 4.578 -12.725
C 12.726 4.641 -15.437
N 11.25 2.804 -16.935
C 11.424 4.258 -15.114
C 13.191 4.088 -16.627
C 12.402 3.172 -17.358
C 10.725 3.337 -15.907
H 10.922 4.685 -14.251
H 14.176 4.347 -17.015
H 12.785 2.768 -18.294
H 9.706 3.058 -15.658
N 15.735 8.132 -11.824
C 16.551 9.243 -12.104
H 16.738 9.542 -13.125
C 16.96 9.782 -10.899
H 17.558 10.641 -10.638
C 15.701 8.015 -10.48
H 15.158 7.271 -9.922
N 16.434 8.98 -9.914
H 2.914 15.187 -16.758
C 2.466 15.079 -15.775
C 1.398 14.988 -13.23
C 1.403 14.201 -15.526
C 3.027 15.865 -14.734
C 2.557 15.782 -13.417
C 0.828 14.199 -14.261
H 3.874 16.512 -14.975
H -0.042 13.602 -14.018
H 0.933 14.965 -12.245
C 3.279 16.372 -12.247
N 4.408 17.352 -9.89
C 3.518 15.587 -11.122
C 3.8 17.663 -12.14
C 4.372 18.12 -10.917
C 4.132 16.116 -9.986
H 3.204 14.549 -11.107
H 3.734 18.365 -12.973
H 4.706 19.154 -10.833
H 4.261 15.496 -9.107
N 0.96 13.221 -16.572
C 1.5 13.084 -17.849
H 2.31 13.715 -18.179
C 0.826 12.069 -18.485
H 0.939 11.659 -19.473
C -0.045 12.31 -16.479
H -0.689 12.182 -15.622
N -0.113 11.557 -17.607
H 7.117 -3.892 -21.604
C 6.731 -4.02 -20.596
C 5.654 -4.493 -18.08
C 7.097 -3.182 -19.545
C 5.817 -5.09 -20.38
C 5.242 -5.35 -19.121
C 6.561 -3.426 -18.281
H 5.552 -5.71 -21.24
H 6.815 -2.828 -17.417
H 5.275 -4.658 -17.072
C 4.247 -6.447 -18.878
N 2.397 -8.478 -18.32
C 3.155 -6.282 -18.026
C 4.313 -7.717 -19.45
C 3.358 -8.716 -19.135
C 2.257 -7.334 -17.783
H 2.973 -5.325 -17.546
H 5.114 -7.976 -20.143
H 3.451 -9.705 -19.581
H 1.417 -7.192 -17.113
N 8.048 -2.047 -19.742
C 8.689 -1.651 -20.93
H 8.502 -2.176 -21.855
C 9.491 -0.565 -20.639
H 10.133 0.058 -21.24
C 8.436 -1.166 -18.791
H 8.077 -1.131 -17.775
N 9.365 -0.336 -19.29
H -6.244 2.944 -20.761
C -6.389 3.606 -19.914
C -6.603 5.41 -17.83
C -7.353 3.366 -18.931
C -5.526 4.728 -19.842
C -5.582 5.647 -18.783
C -7.478 4.284 -17.892
H -4.787 4.852 -20.635
H -8.24 4.19 -17.128
H -6.743 6.129 -17.022
C -4.574 6.749 -18.649
N -2.603 8.777 -18.322
C -3.871 6.964 -17.472
C -4.183 7.614 -19.667
C -3.211 8.63 -19.446
C -2.867 7.95 -17.382
H -4.077 6.351 -16.6
H -4.641 7.547 -20.656
H -2.989 9.318 -20.264
H -2.322 8.037 -16.447
N -8.163 2.105 -18.986
C -8.183 1.204 -20.064
H -7.655 1.416 -20.98
C -8.926 0.118 -19.695
H -9.159 -0.808 -20.194
C -8.999 1.596 -18.039
H -9.268 2.077 -17.111
N -9.395 0.369 -18.421
H -3.013 -15.65 -16.541
C -2.744 -15.286 -15.553
C -2.163 -14.488 -12.957
C -1.829 -14.253 -15.361
C -3.366 -15.914 -14.443
C -3.109 -15.525 -13.118
C -1.529 -13.858 -14.057
H -4.077 -16.719 -14.646
H -0.816 -13.073 -13.84
H -1.893 -14.167 -11.952
C -3.781 -16.162 -11.944
N -4.788 -17.311 -9.607
C -4.32 -15.418 -10.897
C -3.913 -17.541 -11.771
C -4.443 -18.082 -10.575
C -4.84 -16.048 -9.756
H -4.321 -14.333 -10.941
H -3.565 -18.233 -12.539
H -4.478 -19.163 -10.446
H -5.19 -15.459 -8.918
N -1.229 -13.537 -16.524
C -1.453 -13.774 -17.892
H -2.073 -14.597 -18.212
C -0.771 -12.811 -18.606
H -0.658 -12.619 -19.66
C -0.312 -12.545 -16.46
H 0.201 -12.204 -15.573
N -0.169 -11.997 -17.681
H -14.963 -8.889 -13.857
C -14.786 -7.87 -13.527
C -14.273 -5.23 -12.82
C -15.242 -7.389 -12.301
C -14.062 -7.027 -14.394
C -13.791 -5.693 -14.06
C -14.989 -6.065 -11.942
H -13.739 -7.426 -15.359
H -15.349 -5.626 -11.022
H -14.096 -4.194 -12.535
C -13.041 -4.79 -14.954
N -11.579 -2.959 -16.436
C -11.755 -5.053 -15.404
C -13.583 -3.6 -15.418
C -12.818 -2.739 -16.21
C -11.055 -4.081 -16.131
H -11.277 -6.009 -15.205
H -14.626 -3.356 -15.222
H -13.318 -1.903 -16.68
H -10.052 -4.293 -16.489
N -15.938 -8.297 -11.358
C -16.416 -9.592 -11.621
H -16.35 -10.013 -12.612
C -16.88 -10.112 -10.438
H -17.272 -11.077 -10.157
C -16.219 -8.03 -10.064
H -16.014 -7.104 -9.551
N -16.704 -9.134 -9.484
H -6.989 -21.295 -1.669
C -6.249 -20.582 -1.314
C -4.423 -18.793 -0.239
C -5.414 -19.885 -2.185
C -6.181 -20.359 0.091
C -5.274 -19.451 0.679
C -4.492 -18.992 -1.646
H -6.876 -20.923 0.717
H -3.777 -18.466 -2.267
H -3.652 -18.122 0.135
C -5.205 -19.205 2.169
N -4.992 -18.746 4.958
C -4.768 -18.005 2.731
C -5.571 -20.136 3.139
C -5.457 -19.855 4.522
C -4.68 -17.828 4.129
H -4.497 -17.168 2.095
H -5.946 -21.121 2.86
H -5.758 -20.614 5.243
H -4.327 -16.884 4.529
N -5.529 -20.065 -3.665
C -6.148 -21.131 -4.342
H -6.555 -21.964 -3.788
C -6.057 -20.884 -5.695
H -6.356 -21.447 -6.562
C -5.024 -19.246 -4.623
H -4.411 -18.373 -4.453
N -5.471 -19.65 -5.829
H -19.489 -11.626 1.572
C -18.65 -11.078 1.154
C -16.565 -9.737 -0.089
C -17.711 -10.415 1.949
C -18.548 -11.059 -0.259
C -17.504 -10.39 -0.915
C -16.663 -9.74 1.325
H -19.304 -11.596 -0.838
H -15.902 -9.207 1.879
H -15.742 -9.199 -0.558
C -17.387 -10.333 -2.396
N -17.039 -9.992 -5.17
C -16.257 -10.76 -3.08
C -18.37 -9.816 -3.223
C -18.15 -9.696 -4.607
C -16.116 -10.525 -4.462
H -15.477 -11.302 -2.551
H -19.333 -9.506 -2.819
H -18.971 -9.347 -5.223
H -15.202 -10.836 -4.958
N -17.824 -10.448 3.441
C -18.807 -11.12 4.189
H -19.586 -11.68 3.697
C -18.556 -10.893 5.521
H -19.067 -11.189 6.421
C -17.037 -9.802 4.338
H -16.236 -9.118 4.099
N -17.397 -10.158 5.584
H -13.407 -7.104 16.078
C -13.464 -6.602 15.116
C -13.696 -5.459 12.608
C -13.033 -5.285 14.946
C -13.98 -7.351 14.014
C -14.092 -6.816 12.716
C -13.158 -4.708 13.688
H -14.291 -8.379 14.212
H -12.909 -3.671 13.503
H -13.834 -4.934 11.664
C -14.578 -7.601 11.516
N -15.566 -8.874 9.209
C -14.257 -7.218 10.215
C -15.379 -8.75 11.547
C -15.847 -9.372 10.351
C -14.764 -7.895 9.1
H -13.633 -6.353 10.021
H -15.717 -9.171 12.495
H -16.525 -10.223 10.415
H -14.555 -7.509 8.107
N -12.435 -4.508 16.078
C -12.578 -4.763 17.452
H -13.2 -5.579 17.786
C -11.871 -3.798 18.142
H -11.737 -3.59 19.19
C -11.7 -3.371 15.976
H -11.447 -2.874 15.054
N -11.26 -3.01 17.196
H 6.113 5.597 20.856
C 5.725 5.697 19.847
C 4.623 6.085 17.325
C 6.318 5.073 18.752
C 4.57 6.503 19.673
C 3.972 6.702 18.414
C 5.776 5.282 17.484
H 4.135 6.964 20.564
H 6.198 4.845 16.59
H 4.236 6.238 16.319
C 2.726 7.504 18.22
N 0.428 9.037 17.729
C 1.719 7.121 17.336
C 2.454 8.696 18.882
C 1.282 9.43 18.603
C 0.587 7.926 17.128
H 1.793 6.183 16.794
H 3.153 9.102 19.615
H 1.113 10.367 19.134
H -0.178 7.617 16.426
N 7.489 4.164 18.922
C 8.093 3.76 20.126
H 7.73 4.128 21.074
C 9.098 2.868 19.817
H 9.785 2.295 20.418
C 8.158 3.538 17.928
H 7.95 3.623 16.873
N 9.133 2.779 18.446
H -4.799 -4.412 20.653
C -4.738 -4.931 19.701
C -4.423 -6.32 17.323
C -5.699 -4.768 18.705
C -3.621 -5.784 19.497
C -3.424 -6.512 18.307
C -5.537 -5.454 17.505
H -2.901 -5.863 20.314
H -6.268 -5.399 16.709
H -4.373 -6.882 16.391
C -2.237 -7.422 18.101
N -0.024 -9.107 17.684
C -1.735 -7.743 16.841
C -1.528 -8.042 19.136
C -0.416 -8.884 18.88
C -0.626 -8.592 16.689
H -2.198 -7.357 15.939
H -1.839 -7.926 20.174
H 0.083 -9.381 19.711
H -0.286 -8.869 15.697
N -6.876 -3.877 18.927
C -7.343 -3.397 20.163
H -6.855 -3.689 21.081
C -8.434 -2.592 19.923
H -9.077 -2.017 20.568
C -7.699 -3.368 17.978
H -7.602 -3.521 16.914
N -8.634 -2.599 18.56
H -6.367 14.737 15.938
C -6.13 14.311 14.966
C -5.637 13.33 12.408
C -5.081 13.414 14.781
C -6.926 14.719 13.861
C -6.709 14.232 12.558
C -4.828 12.929 13.496
H -7.736 15.43 14.048
H -4.035 12.223 13.293
H -5.411 12.936 11.418
C -7.529 14.651 11.383
N -8.84 15.427 9.042
C -8.073 13.743 10.475
C -7.78 15.981 11.062
C -8.449 16.326 9.87
C -8.737 14.189 9.318
H -7.987 12.675 10.65
H -7.433 16.786 11.709
H -8.592 17.378 9.63
H -9.131 13.479 8.602
N -4.273 12.907 15.926
C -4.493 13.093 17.298
H -5.292 13.733 17.642
C -3.566 12.328 17.977
H -3.372 12.173 19.026
C -3.121 12.203 15.826
H -2.558 12.056 14.92
N -2.807 11.675 17.024
H -17.37 3.808 14.42
C -16.424 3.547 13.952
C -13.948 2.827 12.921
C -16.157 3.806 12.612
C -15.462 2.887 14.757
C -14.211 2.466 14.26
C -14.903 3.476 12.102
H -15.745 2.68 15.792
H -14.616 3.69 11.082
H -12.979 2.601 12.481
C -13.248 1.646 15.073
N -11.505 0.023 16.556
C -13.231 1.611 16.466
C -12.294 0.802 14.497
C -11.428 0.021 15.284
C -12.346 0.766 17.165
H -13.895 2.241 17.058
H -12.202 0.725 13.419
H -10.666 -0.584 14.809
H -12.348 0.762 18.255
N -17.22 4.318 11.708
C -18.539 4.678 12.041
H -18.852 4.723 13.073
C -19.222 4.903 10.864
H -20.238 5.187 10.645
C -17.101 4.507 10.375
H -16.19 4.453 9.8
N -18.32 4.699 9.849
H -11.95 18.997 1.196
C -11.215 18.268 0.866
C -9.387 16.435 -0.157
C -10.398 17.573 1.752
C -11.111 18.039 -0.529
C -10.197 17.119 -1.085
C -9.481 16.654 1.24
H -11.784 18.604 -1.179
H -8.812 16.089 1.875
H -8.641 15.729 -0.517
C -10.072 16.905 -2.563
N -9.781 16.55 -5.345
C -9.779 15.678 -3.157
C -10.253 17.924 -3.49
C -10.123 17.684 -4.867
C -9.638 15.555 -4.557
H -9.688 14.782 -2.549
H -10.512 18.933 -3.171
H -10.35 18.493 -5.555
H -9.441 14.584 -5.001
N -10.533 17.759 3.225
C -11.39 18.639 3.91
H -11.999 19.346 3.368
C -11.256 18.39 5.26
H -11.708 18.828 6.134
C -9.808 17.125 4.174
H -8.956 16.485 4.003
N -10.347 17.368 5.38
H -21.309 6.876 -1.088
C -20.668 6.088 -0.703
C -19.067 4.144 0.454
C -20.028 5.173 -1.537
C -20.484 6.038 0.706
C -19.668 5.076 1.333
C -19.229 4.192 -0.958
H -21.002 6.792 1.302
H -18.749 3.42 -1.547
H -18.472 3.329 0.865
C -19.442 5.047 2.824
N -18.982 4.976 5.613
C -18.284 4.535 3.407
C -20.339 5.541 3.771
C -20.055 5.499 5.156
C -18.11 4.515 4.803
H -17.478 4.153 2.789
H -21.297 5.968 3.47
H -20.778 5.906 5.863
H -17.197 4.106 5.222
N -20.163 5.278 -3.022
C -21.12 6.025 -3.728
H -21.904 6.544 -3.198
C -20.843 5.908 -5.072
H -21.321 6.298 -5.953
C -19.406 4.645 -3.954
H -18.635 3.914 -3.761
N -19.71 5.139 -5.171
H -8.263 15.711 -14.29
C -7.516 15.055 -13.849
C -5.546 13.354 -12.869
C -7.413 14.857 -12.474
C -6.628 14.386 -14.733
C -5.631 13.511 -14.266
C -6.42 14.009 -11.983
H -6.753 14.55 -15.807
H -6.278 13.814 -10.931
H -4.779 12.705 -12.451
C -4.714 12.745 -15.154
N -2.899 11.247 -16.669
C -4.462 11.398 -14.928
C -4.023 13.269 -16.242
C -3.138 12.464 -16.998
C -3.526 10.708 -15.699
H -5.008 10.855 -14.161
H -4.159 14.31 -16.538
H -2.647 12.887 -17.872
H -3.351 9.664 -15.481
N -8.331 15.523 -11.513
C -9.412 16.38 -11.789
H -9.68 16.615 -12.808
C -9.961 16.765 -10.582
H -10.802 17.386 -10.317
C -8.286 15.385 -10.173
H -7.609 14.754 -9.621
N -9.198 16.175 -9.601
H -15.437 3.066 -15.701
C -15.189 2.628 -14.739
C -14.674 1.62 -12.203
C -14.251 1.607 -14.602
C -15.848 3.157 -13.602
C -15.594 2.687 -12.303
C -14.003 1.086 -13.332
H -16.564 3.967 -13.759
H -13.332 0.252 -13.168
H -14.486 1.172 -11.227
C -16.244 3.288 -11.1
N -17.447 4.253 -8.78
C -15.537 3.557 -9.931
C -17.593 3.636 -11.033
C -18.159 4.127 -9.837
C -16.188 4.073 -8.804
H -14.472 3.356 -9.872
H -18.253 3.496 -11.891
H -19.228 4.335 -9.795
H -15.64 4.235 -7.882
N -13.503 1.111 -15.794
C -13.798 1.356 -17.149
H -14.663 1.942 -17.42
C -12.862 0.699 -17.918
H -12.727 0.582 -18.98
C -12.424 0.295 -15.776
H -11.969 -0.142 -14.898
N -11.999 0.096 -17.039
H 3.173 6.558 -21.66
C 3.554 6.426 -20.651
C 4.653 5.986 -18.137
C 2.993 7.071 -19.55
C 4.654 5.54 -20.48
C 5.218 5.276 -19.217
C 3.559 6.868 -18.293
H 5.052 5.044 -21.369
H 3.212 7.388 -17.411
H 5.085 5.872 -17.143
C 6.331 4.298 -19.001
N 8.42 2.508 -18.482
C 6.331 3.407 -17.929
C 7.46 4.19 -19.812
C 8.496 3.273 -19.508
C 7.404 2.529 -17.719
H 5.493 3.38 -17.239
H 7.581 4.833 -20.684
H 9.381 3.236 -20.142
H 7.399 1.856 -16.868
N 1.794 7.948 -19.685
C 1.191 8.404 -20.868
H 1.599 8.135 -21.831
C 0.11 9.185 -20.515
H -0.621 9.727 -21.092
C 1.047 8.423 -18.661
H 1.197 8.208 -17.615
N 0.072 9.219 -19.134
H -3.786 -6.863 -21.333
C -4.05 -6.658 -20.299
C -4.863 -6.035 -17.718
C -3.372 -7.236 -19.228
C -5.128 -5.762 -20.071
C -5.558 -5.413 -18.778
C -3.786 -6.931 -17.932
H -5.619 -5.33 -20.946
H -3.322 -7.362 -17.056
H -5.171 -5.84 -16.692
C -6.663 -4.433 -18.526
N -8.714 -2.614 -17.968
C -6.596 -3.492 -17.501
C -7.845 -4.362 -19.267
C -8.862 -3.427 -18.946
C -7.651 -2.6 -17.27
H -5.718 -3.429 -16.865
H -8.022 -5.048 -20.097
H -9.789 -3.418 -19.518
H -7.59 -1.885 -16.457
N -2.209 -8.143 -19.453
C -1.667 -8.562 -20.682
H -2.105 -8.238 -21.614
C -0.572 -9.357 -20.416
H 0.146 -9.857 -21.045
C -1.445 -8.704 -18.489
H -1.567 -8.573 -17.426
N -0.478 -9.445 -19.049
H 15.587 -2.858 -16.698
C 15.194 -2.611 -15.716
C 14.316 -2.086 -13.133
C 14.131 -1.728 -15.537
C 15.81 -3.231 -14.597
C 15.384 -3.0 -13.276
C 13.695 -1.459 -14.24
H 16.637 -3.919 -14.79
H 12.886 -0.771 -14.032
H 13.962 -1.833 -12.135
C 16.015 -3.66 -12.09
N 17.164 -4.636 -9.741
C 15.268 -4.133 -11.012
C 17.39 -3.841 -11.934
C 17.931 -4.351 -10.729
C 15.898 -4.641 -9.865
H 14.184 -4.091 -11.035
H 18.084 -3.547 -12.722
H 19.012 -4.426 -10.616
H 15.31 -4.942 -9.006
N 13.435 -1.116 -16.706
C 13.73 -1.278 -18.071
H 14.584 -1.86 -18.381
C 12.78 -0.587 -18.795
H 12.633 -0.429 -19.85
C 12.403 -0.244 -16.644
H 11.997 0.203 -15.749
N 11.916 -0.04 -17.881
H 8.183 -15.447 -14.452
C 7.322 -14.945 -14.02
C 5.075 -13.612 -13.066
C 7.036 -14.988 -12.658
C 6.479 -14.222 -14.901
C 5.347 -13.524 -14.445
C 5.902 -14.33 -12.181
H 6.741 -14.207 -15.962
H 5.606 -14.346 -11.143
H 4.189 -13.124 -12.664
C 4.458 -12.732 -15.336
N 2.62 -11.305 -16.854
C 3.979 -11.476 -14.968
C 4.013 -13.168 -16.58
C 3.088 -12.403 -17.316
C 3.064 -10.796 -15.778
H 4.321 -11.0 -14.055
H 4.358 -14.113 -17.001
H 2.756 -12.762 -18.291
H 2.708 -9.81 -15.496
N 7.935 -15.682 -11.701
C 9.108 -16.406 -11.978
H 9.439 -16.544 -12.996
C 9.655 -16.798 -10.775
H 10.557 -17.325 -10.51
C 7.775 -15.71 -10.361
H 6.968 -15.257 -9.81
N 8.801 -16.354 -9.795
H 21.499 -6.487 -1.811
C 20.644 -5.918 -1.458
C 18.511 -4.517 -0.364
C 19.762 -5.277 -2.328
C 20.45 -5.859 -0.05
C 19.375 -5.168 0.544
C 18.696 -4.566 -1.777
H 21.169 -6.392 0.578
H 17.992 -4.02 -2.391
H 17.679 -3.932 0.024
C 19.17 -5.121 2.034
N 18.786 -4.976 4.833
C 17.922 -5.206 2.65
C 20.212 -5.011 2.952
C 19.967 -4.954 4.342
C 17.786 -5.141 4.057
H 17.028 -5.363 2.053
H 21.248 -4.966 2.616
H 20.814 -4.886 5.024
H 16.805 -5.244 4.514
N 19.931 -5.389 -3.814
C 20.993 -6.005 -4.503
H 21.832 -6.416 -3.962
C 20.722 -5.942 -5.853
H 21.263 -6.27 -6.725
C 19.099 -4.894 -4.766
H 18.231 -4.276 -4.595
N 19.497 -5.335 -5.976
H 12.206 -18.024 0.973
C 11.247 -17.66 0.616
C 8.871 -16.721 -0.465
C 10.19 -17.362 1.476
C 11.112 -17.481 -0.78
C 9.924 -17.004 -1.363
C 8.996 -16.889 0.939
H 11.971 -17.726 -1.408
H 8.13 -16.683 1.555
H 7.91 -16.396 -0.862
C 9.789 -16.829 -2.84
N 9.475 -16.541 -5.614
C 9.164 -15.734 -3.429
C 10.294 -17.739 -3.765
C 10.111 -17.546 -5.145
C 9.049 -15.63 -4.829
H 8.776 -14.928 -2.813
H 10.833 -18.629 -3.44
H 10.523 -18.277 -5.841
H 8.583 -14.754 -5.271
N 10.369 -17.517 2.946
C 11.396 -18.235 3.579
H 12.106 -18.807 3.0
C 11.257 -18.061 4.931
H 11.81 -18.434 5.776
C 9.561 -17.043 3.93
H 8.611 -16.545 3.796
N 10.181 -17.221 5.11
H 17.317 -3.834 13.762
C 16.508 -3.277 13.298
C 14.383 -1.796 12.276
C 16.373 -3.163 11.918
C 15.574 -2.644 14.161
C 14.485 -1.889 13.678
C 15.309 -2.418 11.407
H 15.719 -2.764 15.238
H 15.148 -2.284 10.347
H 13.58 -1.209 11.836
C 13.511 -1.195 14.575
N 11.708 0.254 16.167
C 12.144 -1.119 14.313
C 13.881 -0.547 15.748
C 12.933 0.152 16.519
C 11.28 -0.388 15.151
H 11.716 -1.648 13.466
H 14.915 -0.56 16.094
H 13.259 0.637 17.439
H 10.213 -0.36 14.945
N 17.327 -3.827 10.985
C 18.415 -4.663 11.299
H 18.658 -4.883 12.328
C 18.983 -5.085 10.113
H 19.804 -5.744 9.882
C 17.289 -3.743 9.638
H 16.578 -3.179 9.057
N 18.274 -4.478 9.105
H 6.687 -14.966 15.952
C 6.513 -14.49 14.991
C 6.183 -13.376 12.46
C 5.613 -13.438 14.826
C 7.239 -14.988 13.881
C 7.088 -14.443 12.596
C 5.451 -12.876 13.557
H 7.929 -15.82 14.042
H 4.765 -12.065 13.359
H 6.028 -12.937 11.475
C 7.803 -14.963 11.411
N 8.957 -15.798 9.004
C 8.861 -14.296 10.811
C 7.437 -16.136 10.772
C 8.068 -16.518 9.579
C 9.404 -14.761 9.602
H 9.287 -13.413 11.281
H 6.656 -16.775 11.181
H 7.771 -17.459 9.12
H 10.235 -14.228 9.159
N 4.807 -12.929 15.971
C 4.777 -13.412 17.29
H 5.416 -14.23 17.588
C 3.816 -12.702 17.98
H 3.431 -12.773 18.984
C 3.899 -11.931 15.911
H 3.657 -11.352 15.036
N 3.325 -11.759 17.111
H -11.912 -17.747 -7.674
C -11.605 -16.709 -7.766
C -10.989 -14.017 -7.97
C -10.269 -16.334 -7.914
C -12.631 -15.731 -7.733
C -12.355 -14.357 -7.838
C -9.957 -14.983 -8.012
H -13.662 -16.082 -7.647
H -8.945 -14.626 -8.146
H -10.705 -12.969 -8.045
C -13.417 -13.302 -7.813
N -15.281 -11.222 -7.686
C -13.294 -12.12 -8.537
C -14.599 -13.378 -7.075
C -15.531 -12.314 -7.069
C -14.235 -11.094 -8.402
H -12.472 -11.983 -9.235
H -14.835 -14.263 -6.486
H -16.466 -12.413 -6.52
H -14.097 -10.171 -8.955
N -9.191 -17.36 -7.942
C -9.359 -18.75 -8.022
H -10.344 -19.181 -8.109
C -8.111 -19.323 -8.006
H -7.78 -20.344 -8.086
C -7.855 -17.131 -7.962
H -7.377 -16.166 -8.022
N -7.208 -18.301 -7.831
H -13.832 -15.782 7.493
C -12.928 -15.181 7.534
C -10.51 -13.814 7.616
C -12.952 -13.794 7.665
C -11.695 -15.875 7.451
C -10.45 -15.218 7.491
C -11.74 -13.106 7.702
H -11.736 -16.963 7.35
H -11.692 -12.031 7.816
H -9.583 -13.246 7.68
C -9.157 -15.973 7.424
N -6.756 -17.418 7.304
C -8.956 -17.184 8.083
C -8.047 -15.558 6.687
C -6.857 -16.324 6.652
C -7.735 -17.873 7.983
H -9.744 -17.629 8.691
H -8.097 -14.649 6.093
H -6.019 -15.993 6.05
H -7.611 -18.826 8.492
N -14.253 -13.063 7.728
C -15.539 -13.629 7.762
H -15.671 -14.7 7.786
C -16.453 -12.602 7.759
H -17.529 -12.584 7.789
C -14.425 -11.72 7.815
H -13.646 -10.98 7.927
N -15.732 -11.438 7.667
H 3.997 -20.673 -8.232
C 3.463 -19.832 -7.796
C 1.97 -17.729 -6.771
C 4.121 -18.716 -7.285
C 2.051 -19.885 -7.804
C 1.268 -18.835 -7.299
C 3.379 -17.659 -6.765
H 1.576 -20.766 -8.243
H 3.839 -16.788 -6.319
H 1.408 -16.903 -6.336
C -0.22 -18.853 -7.326
N -3.016 -18.801 -7.383
C -0.953 -17.718 -7.641
C -1.005 -19.97 -7.053
C -2.413 -19.889 -7.092
C -2.349 -17.743 -7.627
H -0.458 -16.804 -7.953
H -0.55 -20.935 -6.832
H -3.006 -20.789 -6.935
H -2.88 -16.84 -7.911
N 5.598 -18.633 -7.354
C 6.494 -19.695 -7.561
H 6.136 -20.713 -7.574
C 7.752 -19.159 -7.694
H 8.726 -19.592 -7.852
C 6.347 -17.514 -7.232
H 5.983 -16.531 -6.972
N 7.608 -17.797 -7.587
H 1.443 -21.21 7.63
C 1.667 -20.266 7.139
C 2.392 -17.864 5.944
C 0.667 -19.428 6.651
C 3.031 -19.88 7.046
C 3.435 -18.662 6.463
C 1.03 -18.23 6.04
H 3.774 -20.555 7.478
H 0.302 -17.56 5.605
H 2.631 -16.928 5.444
C 4.862 -18.198 6.436
N 7.499 -17.275 6.595
C 5.198 -16.854 6.584
C 5.976 -19.033 6.312
C 7.298 -18.521 6.393
C 6.536 -16.443 6.636
H 4.43 -16.101 6.735
H 5.851 -20.109 6.184
H 8.146 -19.203 6.356
H 6.774 -15.4 6.827
N -0.77 -19.76 6.829
C -1.331 -20.99 7.212
H -0.707 -21.863 7.33
C -2.69 -20.805 7.351
H -3.5 -21.465 7.616
C -1.803 -18.908 6.646
H -1.738 -17.898 6.273
N -2.932 -19.479 7.083
H 17.458 -11.764 -8.24
C 16.428 -11.427 -8.164
C 13.75 -10.734 -7.975
C 16.086 -10.075 -8.1
C 15.422 -12.429 -8.137
C 14.057 -12.11 -8.052
C 14.742 -9.727 -7.996
H 15.739 -13.472 -8.214
H 14.407 -8.7 -7.951
H 12.708 -10.428 -7.895
C 12.972 -13.136 -8.053
N 10.828 -14.93 -7.978
C 11.8 -12.96 -8.784
C 13.004 -14.327 -7.331
C 11.895 -15.205 -7.324
C 10.754 -13.886 -8.7
H 11.691 -12.109 -9.451
H 13.883 -14.604 -6.751
H 11.954 -16.132 -6.759
H 9.853 -13.731 -9.282
N 17.137 -9.017 -8.129
C 18.507 -9.195 -8.379
H 18.902 -10.174 -8.601
C 19.11 -7.959 -8.322
H 20.122 -7.631 -8.489
C 16.943 -7.684 -7.985
H 15.992 -7.19 -7.866
N 18.133 -7.059 -7.971
H 15.84 -13.856 7.996
C 15.258 -12.989 7.693
C 13.918 -10.677 6.922
C 13.903 -13.075 7.384
C 15.938 -11.74 7.609
C 15.289 -10.547 7.233
C 13.232 -11.916 6.99
H 16.998 -11.721 7.874
H 12.176 -11.91 6.756
H 13.357 -9.794 6.618
C 15.983 -9.218 7.19
N 17.24 -6.709 7.148
C 15.407 -8.06 7.71
C 17.25 -9.003 6.643
C 17.847 -7.716 6.637
C 16.079 -6.828 7.657
H 14.44 -8.103 8.204
H 17.811 -9.83 6.209
H 18.839 -7.581 6.21
H 15.627 -5.944 8.091
N 13.159 -14.368 7.493
C 13.579 -15.558 8.119
H 14.553 -15.615 8.581
C 12.538 -16.464 8.053
H 12.402 -17.463 8.437
C 11.912 -14.601 7.027
H 11.294 -13.897 6.493
N 11.535 -15.852 7.343
H 20.997 4.081 -7.821
C 20.053 3.579 -7.63
C 17.72 2.154 -7.163
C 18.858 4.273 -7.461
C 20.071 2.163 -7.585
C 18.903 1.412 -7.368
C 17.686 3.56 -7.219
H 21.024 1.66 -7.763
H 16.725 4.033 -7.078
H 16.786 1.63 -6.962
C 18.866 -0.078 -7.404
N 18.671 -2.863 -7.525
C 17.768 -0.745 -7.928
C 19.879 -0.931 -6.967
C 19.738 -2.339 -7.058
C 17.713 -2.134 -7.937
H 16.947 -0.203 -8.388
H 20.813 -0.531 -6.574
H 20.573 -2.977 -6.776
H 16.847 -2.607 -8.382
N 18.806 5.751 -7.581
C 19.869 6.632 -7.846
H 20.88 6.265 -7.919
C 19.342 7.897 -7.978
H 19.779 8.862 -8.178
C 17.7 6.513 -7.447
H 16.716 6.169 -7.169
N 17.99 7.779 -7.777
H 21.319 1.361 7.782
C 20.443 1.591 7.182
C 18.212 2.342 5.705
C 19.693 0.604 6.547
C 20.052 2.953 7.096
C 18.91 3.365 6.381
C 18.588 0.981 5.787
H 20.652 3.687 7.64
H 17.993 0.266 5.235
H 17.347 2.599 5.095
C 18.416 4.779 6.385
N 17.419 7.387 6.573
C 17.059 5.077 6.478
C 19.23 5.911 6.358
C 18.68 7.214 6.452
C 16.614 6.402 6.562
H 16.322 4.284 6.553
H 20.314 5.814 6.292
H 19.346 8.075 6.481
H 15.556 6.606 6.703
N 19.992 -0.839 6.76
C 21.109 -1.404 7.4
H 21.945 -0.785 7.69
C 20.867 -2.753 7.546
H 21.43 -3.559 7.989
C 19.213 -1.875 6.371
H 18.34 -1.822 5.738
N 19.628 -2.985 7.0
H 11.578 17.302 -8.488
C 11.274 16.271 -8.329
C 10.675 13.596 -7.922
C 9.936 15.894 -8.197
C 12.308 15.303 -8.261
C 12.039 13.938 -8.067
C 9.634 14.553 -7.983
H 13.337 15.646 -8.396
H 8.619 14.194 -7.885
H 10.404 12.554 -7.759
C 13.107 12.893 -8.042
N 15.019 10.854 -7.978
C 12.93 11.659 -8.658
C 14.351 13.033 -7.424
C 15.29 11.973 -7.418
C 13.916 10.671 -8.584
H 12.032 11.453 -9.234
H 14.626 13.965 -6.93
H 16.256 12.107 -6.932
H 13.754 9.72 -9.075
N 8.846 16.909 -8.286
C 8.985 18.25 -8.681
H 9.947 18.641 -8.975
C 7.74 18.83 -8.643
H 7.384 19.813 -8.901
C 7.523 16.706 -8.06
H 7.059 15.764 -7.812
N 6.875 17.876 -8.153
H 13.819 15.63 7.729
C 12.939 15.027 7.52
C 10.585 13.652 6.974
C 13.013 13.653 7.308
C 11.688 15.703 7.451
C 10.468 15.044 7.182
C 11.831 12.964 7.032
H 11.703 16.785 7.61
H 11.812 11.893 6.885
H 9.688 13.064 6.787
C 9.142 15.766 7.135
N 6.669 17.146 7.049
C 8.861 16.906 7.884
C 8.065 15.386 6.332
C 6.837 16.098 6.336
C 7.619 17.568 7.791
H 9.607 17.332 8.554
H 8.165 14.548 5.648
H 6.035 15.756 5.698
H 7.464 18.481 8.36
N 14.322 12.929 7.372
C 15.558 13.427 7.828
H 15.637 14.438 8.199
C 16.488 12.411 7.737
H 17.529 12.341 8.011
C 14.538 11.636 7.036
H 13.791 10.945 6.681
N 15.839 11.335 7.183
H -4.324 20.313 -6.107
C -3.827 19.656 -6.815
C -2.444 18.019 -8.595
C -4.529 18.767 -7.617
C -2.42 19.684 -6.874
C -1.686 18.848 -7.738
C -3.852 17.955 -8.523
H -1.899 20.375 -6.21
H -4.377 17.321 -9.227
H -1.94 17.427 -9.359
C -0.195 18.802 -7.694
N 2.591 18.656 -7.583
C 0.617 19.892 -7.379
C 0.514 17.625 -7.911
C 1.911 17.598 -7.813
C 2.018 19.762 -7.314
H 0.19 20.884 -7.229
H 0.001 16.707 -8.177
H 2.427 16.671 -8.022
H 2.64 20.637 -7.138
N -5.991 18.66 -7.482
C -6.889 19.669 -7.12
H -6.525 20.659 -6.892
C -8.157 19.142 -7.207
H -9.136 19.568 -7.07
C -6.71 17.54 -7.681
H -6.298 16.57 -7.914
N -8.011 17.807 -7.501
H -1.455 20.985 5.808
C -1.717 19.975 6.11
C -2.55 17.43 6.872
C -0.772 19.057 6.554
C -3.082 19.604 6.039
C -3.538 18.325 6.417
C -1.187 17.782 6.936
H -3.79 20.358 5.687
H -0.505 17.046 7.338
H -2.84 16.444 7.234
C -4.982 17.944 6.404
N -7.65 17.191 6.662
C -6.008 18.853 6.65
C -5.426 16.636 6.211
C -6.783 16.306 6.356
C -7.339 18.423 6.755
H -5.801 19.907 6.831
H -4.726 15.838 5.985
H -7.096 15.269 6.279
H -8.117 19.143 7.006
N 0.666 19.407 6.623
C 1.258 20.673 6.509
H 0.65 21.55 6.345
C 2.62 20.513 6.657
H 3.442 21.211 6.633
C 1.671 18.526 6.792
H 1.568 17.457 6.863
N 2.847 19.162 6.838
H -17.556 11.402 -7.8
C -16.528 11.082 -7.66
C -13.855 10.446 -7.299
C -16.181 9.744 -7.467
C -15.536 12.095 -7.676
C -14.171 11.808 -7.509
C -14.839 9.423 -7.274
H -15.862 13.123 -7.853
H -14.501 8.405 -7.131
H -12.814 10.162 -7.152
C -13.114 12.865 -7.57
N -11.069 14.771 -7.653
C -11.893 12.651 -8.203
C -13.239 14.144 -7.023
C -12.18 15.078 -7.094
C -10.903 13.64 -8.21
H -11.698 11.719 -8.725
H -14.157 14.452 -6.524
H -12.302 16.067 -6.655
H -9.958 13.45 -8.703
N -17.234 8.683 -7.475
C -18.566 8.837 -7.897
H -18.91 9.781 -8.291
C -19.198 7.623 -7.76
H -20.19 7.283 -8.006
C -17.086 7.377 -7.142
H -16.163 6.899 -6.852
N -18.281 6.763 -7.204
H -15.756 13.894 8.708
C -15.268 13.03 8.265
C -14.181 10.723 7.152
C -13.987 13.085 7.726
C -15.997 11.816 8.247
C -15.475 10.626 7.7
C -13.444 11.931 7.16
H -17.005 11.83 8.669
H -12.454 11.908 6.726
H -13.714 9.839 6.722
C -16.233 9.337 7.72
N -17.615 6.902 7.8
C -17.077 8.972 8.764
C -16.176 8.388 6.699
C -16.89 7.174 6.786
C -17.761 7.747 8.744
H -17.236 9.632 9.615
H -15.608 8.585 5.794
H -16.84 6.471 5.966
H -18.445 7.508 9.554
N -13.193 14.343 7.771
C -13.55 15.559 8.38
H -14.502 15.67 8.875
C -12.492 16.428 8.237
H -12.317 17.435 8.579
C -11.953 14.515 7.264
H -11.37 13.77 6.746
N -11.535 15.765 7.505
H -21.147 -4.313 -7.768
C -20.316 -3.833 -7.257
C -18.263 -2.463 -6.005
C -19.233 -4.557 -6.756
C -20.353 -2.416 -7.154
C -19.314 -1.688 -6.55
C -18.208 -3.872 -6.111
H -21.205 -1.895 -7.598
H -17.362 -4.374 -5.662
H -17.453 -1.957 -5.48
C -19.246 -0.193 -6.533
N -18.967 2.592 -6.61
C -18.034 0.454 -6.74
C -20.315 0.687 -6.349
C -20.125 2.097 -6.393
C -17.947 1.844 -6.731
H -17.136 -0.11 -6.972
H -21.328 0.308 -6.199
H -20.987 2.759 -6.314
H -16.987 2.304 -6.931
N -19.134 -6.03 -6.974
C -20.15 -6.885 -7.439
H -21.154 -6.515 -7.572
C -19.596 -8.129 -7.639
H -19.994 -9.071 -7.982
C -18.044 -6.807 -6.762
H -17.11 -6.494 -6.318
N -18.273 -8.024 -7.282
H -21.41 -1.404 7.992
C -20.365 -1.625 7.791
C -17.726 -2.359 7.313
C -19.402 -0.63 7.656
C -20.001 -2.99 7.67
C -18.678 -3.394 7.41
C -18.076 -0.997 7.426
H -20.793 -3.737 7.769
H -17.28 -0.276 7.314
H -16.679 -2.607 7.152
C -18.279 -4.822 7.24
N -17.324 -7.434 7.053
C -17.318 -5.222 6.312
C -18.799 -5.871 7.993
C -18.294 -7.18 7.853
C -16.888 -6.554 6.246
H -16.871 -4.498 5.636
H -19.575 -5.699 8.739
H -18.686 -7.969 8.495
H -16.097 -6.84 5.563
N -19.761 0.809 7.742
C -21.043 1.377 7.852
H -21.921 0.75 7.867
C -20.894 2.746 7.895
H -21.596 3.562 7.951
C -18.888 1.838 7.701
H -17.819 1.76 7.586
N -19.542 2.994 7.846
